                                  MODFLOW-2000
      U.S. GEOLOGICAL SURVEY MODULAR FINITE-DIFFERENCE GROUND-WATER FLOW MODEL
                           VERSION 1.17.02 02/14/2007


 This model run combines GLOBAL and LIST output into this single file.

 GLOBAL LISTING FILE: example3.lst
                         UNIT    8

 OPENING ../data/example3.ba6
 FILE TYPE:BAS6   UNIT    7   STATUS:OLD    
 FORMAT:FORMATTED              ACCESS:SEQUENTIAL          

 OPENING ../data/example3.dis
 FILE TYPE:DIS   UNIT   10   STATUS:OLD    
 FORMAT:FORMATTED              ACCESS:SEQUENTIAL          

 OPENING ../data/example3.bc6
 FILE TYPE:BCF6   UNIT   11   STATUS:OLD    
 FORMAT:FORMATTED              ACCESS:SEQUENTIAL          

 OPENING ../data/example3.wel
 FILE TYPE:WEL   UNIT   12   STATUS:OLD    
 FORMAT:FORMATTED              ACCESS:SEQUENTIAL          

 OPENING ../data/example3.pcg
 FILE TYPE:PCG   UNIT   23   STATUS:OLD    
 FORMAT:FORMATTED              ACCESS:SEQUENTIAL          

 OPENING ../data/example3.oc
 FILE TYPE:OC   UNIT   22   STATUS:OLD    
 FORMAT:FORMATTED              ACCESS:SEQUENTIAL          

 OPENING ../data/example3.inf
 FILE TYPE:DAF   UNIT   30   STATUS:OLD    
 FORMAT:FORMATTED              ACCESS:SEQUENTIAL          

 OPENING ../data/example3.ing
 FILE TYPE:DAFG   UNIT   31   STATUS:OLD    
 FORMAT:FORMATTED              ACCESS:SEQUENTIAL          

 OPENING example3.flw
 FILE TYPE:DATA   UNIT   32   STATUS:UNKNOWN
 FORMAT:FORMATTED              ACCESS:SEQUENTIAL          


 DISCRETIZATION INPUT DATA READ FROM UNIT   10
    1 LAYERS        41 ROWS        21 COLUMNS
    1 STRESS PERIOD(S) IN SIMULATION
 MODEL TIME UNIT IS DAYS
 MODEL LENGTH UNIT IS UNDEFINED
 THE GROUND-WATER TRANSPORT PROCESS IS INACTIVE

 THE OBSERVATION PROCESS IS INACTIVE
 THE SENSITIVITY PROCESS IS INACTIVE
 THE PARAMETER-ESTIMATION PROCESS IS INACTIVE

 MODE: FORWARD

  Confining bed flag for each layer:
   0

       7811  ELEMENTS OF GX ARRAY USED OUT OF       7811
        861  ELEMENTS OF GZ ARRAY USED OUT OF        861
        861  ELEMENTS OF IG ARRAY USED OUT OF        861

                     DELR =   500.000    

                     DELC =   500.000    

 TOP ELEVATION OF LAYER 1 =   1.00000    

   MODEL LAYER BOTTOM EL. =   0.00000     FOR LAYER   1


 STRESS PERIOD     LENGTH       TIME STEPS     MULTIPLIER FOR DELT    SS FLAG
 ----------------------------------------------------------------------------
        1        0.6667000         32                    1.000         TR

 TRANSIENT SIMULATION




 PCG2 -- CONJUGATE GRADIENT SOLUTION PACKAGE, VERSION 2.4, 12/29/98
 MAXIMUM OF     50 CALLS OF SOLUTION ROUTINE
 MAXIMUM OF     20 INTERNAL ITERATIONS PER CALL TO SOLUTION ROUTINE
 MATRIX PRECONDITIONING TYPE :    1
       3722 ELEMENTS IN X ARRAY ARE USED BY PCG
       7000 ELEMENTS IN IX ARRAY ARE USED BY PCG
       3444 ELEMENTS IN Z ARRAY ARE USED BY PCG

       3722  ELEMENTS OF X ARRAY USED OUT OF       3722
       3444  ELEMENTS OF Z ARRAY USED OUT OF       3444
       7000  ELEMENTS OF IX ARRAY USED OUT OF       7000
          0  ELEMENTS OF XHS ARRAY USED OUT OF          1



                                    SOLUTION BY THE CONJUGATE-GRADIENT METHOD
                                   -------------------------------------------
                    MAXIMUM NUMBER OF CALLS TO PCG ROUTINE =       50
                        MAXIMUM ITERATIONS PER CALL TO PCG =       20
                               MATRIX PRECONDITIONING TYPE =        1
        RELAXATION FACTOR (ONLY USED WITH PRECOND. TYPE 1) =    0.10000E+01
 PARAMETER OF POLYNOMIAL PRECOND. = 2 (2) OR IS CALCULATED :        2
                         HEAD CHANGE CRITERION FOR CLOSURE =    0.10000E-02
                     RESIDUAL CHANGE CRITERION FOR CLOSURE =    0.10000E+04
            PCG HEAD AND RESIDUAL CHANGE PRINTOUT INTERVAL =        1
     PRINTING FROM SOLVER IS LIMITED(1) OR SUPPRESSED (>1) =        0
                                         DAMPING PARAMETER =    0.10000E+01
 
 #DAF test problem                                                               
 #Similar to Swain problem 3                                                     
    1 LAYERS        41 ROWS        21 COLUMNS
    1 STRESS PERIOD(S) IN SIMULATION

 BAS6 -- BASIC PACKAGE, VERSION 6, 1/11/2000 INPUT READ FROM UNIT    7
          5 ELEMENTS IN IR ARRAY ARE USED BY BAS

 BCF6 -- BLOCK-CENTERED FLOW PACKAGE, VERSION 6, 1/11/2000
         INPUT READ FROM UNIT 11
 TRANSIENT SIMULATION
 CELL-BY-CELL FLOWS WILL BE SAVED ON UNIT 44
 HEAD AT CELLS THAT CONVERT TO DRY=  0.10000E+31
 WETTING CAPABILITY IS NOT ACTIVE
      LAYER  LAYER-TYPE CODE     INTERBLOCK T
      --------------------------------------------
         1            0          0 -- HARMONIC    
        862 ELEMENTS IN RX ARRAY ARE USED BY BCF

 WEL6 -- WELL PACKAGE, VERSION 6, 1/11/2000 INPUT READ FROM UNIT   12
 No named parameters
 MAXIMUM OF     21 ACTIVE WELLS AT ONE TIME
         84 ELEMENTS IN RX ARRAY ARE USED BY WEL
  Example 3                                                                      

 The  3 Branch Model with  1 Internal Junctions is run   64 Time Steps each 0.25 hours long.
The Model starts at  0.00 hours past midnight.
The node output is given in "bltm.out" every   1 time steps.
Input units are English (feet and river miles)
 Cross sectional area = AO+A1(Q**A2)
 AO = Cross sectional area at zero flow.
 Width=W1(Q)**W2

                            * * *  INITIAL CONDITIONS  * * *

 node   Mi/km  Disch       Area      Width   Slope           A1         A2         W1         W2         AO

Branch   1 Extends from JNCT  2 to JNCT  1 and receives 1.00 of flow at JNCT  2

    1    0.00  0.000      0.000      0.000     0.8480E-03  3.790     0.6600      21.10     0.2600      0.000    
    2    0.13  0.000      0.000      0.000     0.8480E-03  3.790     0.6600      21.10     0.2600      0.000    
    3    0.27  0.000      0.000      0.000     0.8480E-03  3.790     0.6600      21.10     0.2600      0.000    
    4    0.40  0.000      0.000      0.000     0.8480E-03  3.790     0.6600      21.10     0.2600      0.000    
    5    0.54  0.000      0.000      0.000     0.8480E-03  3.790     0.6600      21.10     0.2600      0.000    
    6    0.67  0.000      0.000      0.000     0.8480E-03  3.790     0.6600      21.10     0.2600      0.000    
    7    0.80  0.000      0.000      0.000     0.8480E-03  3.790     0.6600      21.10     0.2600      0.000    
    8    0.94  0.000      0.000      0.000     0.8480E-03  3.790     0.6600      21.10     0.2600      0.000    
    9    1.07  0.000      0.000      0.000     0.8480E-03  3.790     0.6600      21.10     0.2600      0.000    
   10    1.21  0.000      0.000      0.000     0.8480E-03  3.790     0.6600      21.10     0.2600      0.000    
   11    1.34  0.000      0.000      0.000     0.8480E-03  3.790     0.6600      21.10     0.2600      0.000    
   12    1.41  0.000      0.000      0.000     0.8480E-03  3.790     0.6600      21.10     0.2600      0.000    
   13    1.41  0.000    

Branch   2 Extends from JNCT  3 to JNCT  1 and receives 1.00 of flow at JNCT  3

    1    0.00  0.000      0.000      0.000     0.8480E-03  3.790     0.6600      21.10     0.2600      0.000    
    2    0.13  0.000      0.000      0.000     0.8480E-03  3.790     0.6600      21.10     0.2600      0.000    
    3    0.27  0.000      0.000      0.000     0.8480E-03  3.790     0.6600      21.10     0.2600      0.000    
    4    0.40  0.000      0.000      0.000     0.8480E-03  3.790     0.6600      21.10     0.2600      0.000    
    5    0.54  0.000      0.000      0.000     0.8480E-03  3.790     0.6600      21.10     0.2600      0.000    
    6    0.67  0.000      0.000      0.000     0.8480E-03  3.790     0.6600      21.10     0.2600      0.000    
    7    0.80  0.000      0.000      0.000     0.8480E-03  3.790     0.6600      21.10     0.2600      0.000    
    8    0.94  0.000      0.000      0.000     0.8480E-03  3.790     0.6600      21.10     0.2600      0.000    
    9    1.07  0.000      0.000      0.000     0.8480E-03  3.790     0.6600      21.10     0.2600      0.000    
   10    1.21  0.000      0.000      0.000     0.8480E-03  3.790     0.6600      21.10     0.2600      0.000    
   11    1.34  0.000      0.000      0.000     0.8480E-03  3.790     0.6600      21.10     0.2600      0.000    
   12    1.41  0.000      0.000      0.000     0.8480E-03  3.790     0.6600      21.10     0.2600      0.000    
   13    1.41  0.000    

Branch   3 Extends from JNCT  1 to JNCT  4 and receives 1.00 of flow at JNCT  1

    1    0.00  0.000      0.000      0.000     0.1200E-02  3.870     0.6600      26.60     0.2600      0.000    
    2    0.05  0.000      0.000      0.000     0.1200E-02  3.870     0.6600      26.60     0.2600      0.000    
    3    0.14  0.000      0.000      0.000     0.1200E-02  3.870     0.6600      26.60     0.2600      0.000    
    4    0.24  0.000      0.000      0.000     0.1200E-02  3.870     0.6600      26.60     0.2600      0.000    
    5    0.33  0.000      0.000      0.000     0.1200E-02  3.870     0.6600      26.60     0.2600      0.000    
    6    0.43  0.000      0.000      0.000     0.1200E-02  3.870     0.6600      26.60     0.2600      0.000    
    7    0.52  0.000      0.000      0.000     0.1200E-02  3.870     0.6600      26.60     0.2600      0.000    
    8    0.62  0.000      0.000      0.000     0.1200E-02  3.870     0.6600      26.60     0.2600      0.000    
    9    0.71  0.000      0.000      0.000     0.1200E-02  3.870     0.6600      26.60     0.2600      0.000    
   10    0.81  0.000      0.000      0.000     0.1200E-02  3.870     0.6600      26.60     0.2600      0.000    
   11    0.90  0.000      0.000      0.000     0.1200E-02  3.870     0.6600      26.60     0.2600      0.000    
   12    0.99  0.000      0.000      0.000     0.1200E-02  3.870     0.6600      26.60     0.2600      0.000    
   13    1.09  0.000      0.000      0.000     0.1200E-02  3.870     0.6600      26.60     0.2600      0.000    
   14    1.18  0.000      0.000      0.000     0.1200E-02  3.870     0.6600      26.60     0.2600      0.000    
   15    1.28  0.000      0.000      0.000     0.1200E-02  3.870     0.6600      26.60     0.2600      0.000    
   16    1.37  0.000      0.000      0.000     0.1200E-02  3.870     0.6600      26.60     0.2600      0.000    
   17    1.47  0.000      0.000      0.000     0.1200E-02  3.870     0.6600      26.60     0.2600      0.000    
   18    1.56  0.000      0.000      0.000     0.1200E-02  3.870     0.6600      26.60     0.2600      0.000    
   19    1.66  0.000      0.000      0.000     0.1200E-02  3.870     0.6600      26.60     0.2600      0.000    
   20    1.75  0.000      0.000      0.000     0.1200E-02  3.870     0.6600      26.60     0.2600      0.000    
   21    1.85  0.000      0.000      0.000     0.1200E-02  3.870     0.6600      26.60     0.2600      0.000    
   22    1.94  0.000      0.000      0.000     0.1200E-02  3.870     0.6600      26.60     0.2600      0.000    
   23    2.04  0.000      0.000      0.000     0.1200E-02  3.870     0.6600      26.60     0.2600      0.000    
   24    2.13  0.000      0.000      0.000     0.1200E-02  3.870     0.6600      26.60     0.2600      0.000    
   25    2.22  0.000      0.000      0.000     0.1200E-02  3.870     0.6600      26.60     0.2600      0.000    
   26    2.32  0.000      0.000      0.000     0.1200E-02  3.870     0.6600      26.60     0.2600      0.000    
   27    2.41  0.000      0.000      0.000     0.1200E-02  3.870     0.6600      26.60     0.2600      0.000    
   28    2.51  0.000      0.000      0.000     0.1200E-02  3.870     0.6600      26.60     0.2600      0.000    
   29    2.60  0.000      0.000      0.000     0.1200E-02  3.870     0.6600      26.60     0.2600      0.000    
   30    2.70  0.000      0.000      0.000     0.1200E-02  3.870     0.6600      26.60     0.2600      0.000    
   31    2.79  0.000      0.000      0.000     0.1200E-02  3.870     0.6600      26.60     0.2600      0.000    
   32    2.89  0.000      0.000      0.000     0.1200E-02  3.870     0.6600      26.60     0.2600      0.000    
   33    3.00  0.000    

                         * * *  OUTPUT  * * *

 This is input for DAFLOW/MODFLOW                                                
                 Bed      Bed          Ground water node of exchange             
   Brch  Grid    Elev     Thickness  Conductivity Layer   Row Column             
     1     2     25.30      1.00      0.100E-03     1     1     1
     1     3     24.70      1.00      0.100E-03     1     2     2
     1     4     24.10      1.00      0.100E-03     1     3     3
     1     5     23.50      1.00      0.100E-03     1     4     4
     1     6     22.90      1.00      0.100E-03     1     5     5
     1     7     22.30      1.00      0.100E-03     1     6     6
     1     8     21.70      1.00      0.100E-03     1     7     7
     1     9     21.10      1.00      0.100E-03     1     8     8
     1    10     20.50      1.00      0.100E-03     1     9     9
     1    11     19.90      1.00      0.100E-03     1    10    10
     1    12     19.30      1.00      0.100E-03     1    11    11
     2     2     25.30      1.00      0.100E-03     1     1    21
     2     3     24.70      1.00      0.100E-03     1     2    20
     2     4     24.10      1.00      0.100E-03     1     3    19
     2     5     23.50      1.00      0.100E-03     1     4    18
     2     6     22.90      1.00      0.100E-03     1     5    17
     2     7     22.30      1.00      0.100E-03     1     6    16
     2     8     21.70      1.00      0.100E-03     1     7    15
     2     9     21.10      1.00      0.100E-03     1     8    14
     2    10     20.50      1.00      0.100E-03     1     9    13
     2    11     19.90      1.00      0.100E-03     1    10    12
     2    12     19.30      1.00      0.100E-03     1    11    11
     3     2     19.30      1.00      0.100E-03     1    11    11
     3     3     18.70      1.00      0.100E-03     1    12    11
     3     4     18.10      1.00      0.100E-03     1    13    11
     3     5     17.50      1.00      0.100E-03     1    14    11
     3     6     16.90      1.00      0.100E-03     1    15    11
     3     7     16.30      1.00      0.100E-03     1    16    11
     3     8     15.70      1.00      0.100E-03     1    17    11
     3     9     15.10      1.00      0.100E-03     1    18    11
     3    10     14.50      1.00      0.100E-03     1    19    11
     3    11     13.90      1.00      0.100E-03     1    20    11
     3    12     13.30      1.00      0.100E-03     1    21    11
     3    13     12.70      1.00      0.100E-03     1    22    11
     3    14     12.10      1.00      0.100E-03     1    23    11
     3    15     11.50      1.00      0.100E-03     1    24    11
     3    16     10.90      1.00      0.100E-03     1    25    11
     3    17     10.30      1.00      0.100E-03     1    26    11
     3    18      9.70      1.00      0.100E-03     1    27    11
     3    19      9.10      1.00      0.100E-03     1    28    11
     3    20      8.50      1.00      0.100E-03     1    29    11
     3    21      7.90      1.00      0.100E-03     1    30    11
     3    22      7.30      1.00      0.100E-03     1    31    11
     3    23      6.70      1.00      0.100E-03     1    32    11
     3    24      6.10      1.00      0.100E-03     1    33    11
     3    25      5.50      1.00      0.100E-03     1    34    11
     3    26      4.90      1.00      0.100E-03     1    35    11
     3    27      4.30      1.00      0.100E-03     1    36    11
     3    28      3.70      1.00      0.100E-03     1    37    11
     3    29      3.10      1.00      0.100E-03     1    38    11
     3    30      2.50      1.00      0.100E-03     1    39    11
     3    31      1.90      1.00      0.100E-03     1    40    11
     3    32      1.30      1.00      0.100E-07     1    41    11
  CELL-BY-CELL FLOWS WILL BE SAVED ON UNIT          44
  DAF debugging is turned off
  DAFLOW is using central differencing for ground-water head

        946  ELEMENTS OF RX ARRAY USED OUT OF        946
          0  ELEMENTS OF RZ ARRAY USED OUT OF          1
          5  ELEMENTS OF IR ARRAY USED OUT OF          5
1
 #DAF test problem                                                               
 #Similar to Swain problem 3                                                     



                     BOUNDARY ARRAY FOR LAYER   1
 READING ON UNIT    7 WITH FORMAT: (20I4)              

       1  2  3  4  5  6  7  8  9 10 11 12 13 14 15 16 17 18 19 20 21
 ...................................................................
   1   1  1  1  1  1  1  1  1  1  1  1  1  1  1  1  1  1  1  1  1  1
   2   1  1  1  1  1  1  1  1  1  1  1  1  1  1  1  1  1  1  1  1  1
   3   1  1  1  1  1  1  1  1  1  1  1  1  1  1  1  1  1  1  1  1  1
   4   1  1  1  1  1  1  1  1  1  1  1  1  1  1  1  1  1  1  1  1  1
   5   1  1  1  1  1  1  1  1  1  1  1  1  1  1  1  1  1  1  1  1  1
   6   1  1  1  1  1  1  1  1  1  1  1  1  1  1  1  1  1  1  1  1  1
   7   1  1  1  1  1  1  1  1  1  1  1  1  1  1  1  1  1  1  1  1  1
   8   1  1  1  1  1  1  1  1  1  1  1  1  1  1  1  1  1  1  1  1  1
   9   1  1  1  1  1  1  1  1  1  1  1  1  1  1  1  1  1  1  1  1  1
  10   1  1  1  1  1  1  1  1  1  1  1  1  1  1  1  1  1  1  1  1  1
  11   1  1  1  1  1  1  1  1  1  1  1  1  1  1  1  1  1  1  1  1  1
  12   1  1  1  1  1  1  1  1  1  1  1  1  1  1  1  1  1  1  1  1  1
  13   1  1  1  1  1  1  1  1  1  1  1  1  1  1  1  1  1  1  1  1  1
  14   1  1  1  1  1  1  1  1  1  1  1  1  1  1  1  1  1  1  1  1  1
  15   1  1  1  1  1  1  1  1  1  1  1  1  1  1  1  1  1  1  1  1  1
  16   1  1  1  1  1  1  1  1  1  1  1  1  1  1  1  1  1  1  1  1  1
  17   1  1  1  1  1  1  1  1  1  1  1  1  1  1  1  1  1  1  1  1  1
  18   1  1  1  1  1  1  1  1  1  1  1  1  1  1  1  1  1  1  1  1  1
  19   1  1  1  1  1  1  1  1  1  1  1  1  1  1  1  1  1  1  1  1  1
  20   1  1  1  1  1  1  1  1  1  1  1  1  1  1  1  1  1  1  1  1  1
  21   1  1  1  1  1  1  1  1  1  1  1  1  1  1  1  1  1  1  1  1  1
  22   1  1  1  1  1  1  1  1  1  1  1  1  1  1  1  1  1  1  1  1  1
  23   1  1  1  1  1  1  1  1  1  1  1  1  1  1  1  1  1  1  1  1  1
  24   1  1  1  1  1  1  1  1  1  1  1  1  1  1  1  1  1  1  1  1  1
  25   1  1  1  1  1  1  1  1  1  1  1  1  1  1  1  1  1  1  1  1  1
  26   1  1  1  1  1  1  1  1  1  1  1  1  1  1  1  1  1  1  1  1  1
  27   1  1  1  1  1  1  1  1  1  1  1  1  1  1  1  1  1  1  1  1  1
  28   1  1  1  1  1  1  1  1  1  1  1  1  1  1  1  1  1  1  1  1  1
  29   1  1  1  1  1  1  1  1  1  1  1  1  1  1  1  1  1  1  1  1  1
  30   1  1  1  1  1  1  1  1  1  1  1  1  1  1  1  1  1  1  1  1  1
  31   1  1  1  1  1  1  1  1  1  1  1  1  1  1  1  1  1  1  1  1  1
  32   1  1  1  1  1  1  1  1  1  1  1  1  1  1  1  1  1  1  1  1  1
  33   1  1  1  1  1  1  1  1  1  1  1  1  1  1  1  1  1  1  1  1  1
  34   1  1  1  1  1  1  1  1  1  1  1  1  1  1  1  1  1  1  1  1  1
  35   1  1  1  1  1  1  1  1  1  1  1  1  1  1  1  1  1  1  1  1  1
  36   1  1  1  1  1  1  1  1  1  1  1  1  1  1  1  1  1  1  1  1  1
  37   1  1  1  1  1  1  1  1  1  1  1  1  1  1  1  1  1  1  1  1  1
  38   1  1  1  1  1  1  1  1  1  1  1  1  1  1  1  1  1  1  1  1  1
  39   1  1  1  1  1  1  1  1  1  1  1  1  1  1  1  1  1  1  1  1  1
  40   1  1  1  1  1  1  1  1  1  1  1  1  1  1  1  1  1  1  1  1  1
  41  -1 -1 -1 -1 -1 -1 -1 -1 -1 -1 -1 -1 -1 -1 -1 -1 -1 -1 -1 -1 -1

 AQUIFER HEAD WILL BE SET TO  999.99     AT ALL NO-FLOW NODES (IBOUND=0).



                       INITIAL HEAD FOR LAYER   1
 READING ON UNIT    7 WITH FORMAT: (10F13.0)           

         1     2     3     4     5     6     7     8     9    10    11    12    13    14    15    16    17    18    19    20
        21
 ...........................................................................................................................
   1  25.30 25.30 25.30 25.30 25.30 25.30 25.30 25.30 25.30 25.30 25.30 25.30 25.30 25.30 25.30 25.30 25.30 25.30 25.30 25.30
      25.30
   2  24.70 24.70 24.70 24.70 24.70 24.70 24.70 24.70 24.70 24.70 24.70 24.70 24.70 24.70 24.70 24.70 24.70 24.70 24.70 24.70
      24.70
   3  24.10 24.10 24.10 24.10 24.10 24.10 24.10 24.10 24.10 24.10 24.10 24.10 24.10 24.10 24.10 24.10 24.10 24.10 24.10 24.10
      24.10
   4  23.50 23.50 23.50 23.50 23.50 23.50 23.50 23.50 23.50 23.50 23.50 23.50 23.50 23.50 23.50 23.50 23.50 23.50 23.50 23.50
      23.50
   5  22.90 22.90 22.90 22.90 22.90 22.90 22.90 22.90 22.90 22.90 22.90 22.90 22.90 22.90 22.90 22.90 22.90 22.90 22.90 22.90
      22.90
   6  22.30 22.30 22.30 22.30 22.30 22.30 22.30 22.30 22.30 22.30 22.30 22.30 22.30 22.30 22.30 22.30 22.30 22.30 22.30 22.30
      22.30
   7  21.70 21.70 21.70 21.70 21.70 21.70 21.70 21.70 21.70 21.70 21.70 21.70 21.70 21.70 21.70 21.70 21.70 21.70 21.70 21.70
      21.70
   8  21.10 21.10 21.10 21.10 21.10 21.10 21.10 21.10 21.10 21.10 21.10 21.10 21.10 21.10 21.10 21.10 21.10 21.10 21.10 21.10
      21.10
   9  20.50 20.50 20.50 20.50 20.50 20.50 20.50 20.50 20.50 20.50 20.50 20.50 20.50 20.50 20.50 20.50 20.50 20.50 20.50 20.50
      20.50
  10  19.90 19.90 19.90 19.90 19.90 19.90 19.90 19.90 19.90 19.90 19.90 19.90 19.90 19.90 19.90 19.90 19.90 19.90 19.90 19.90
      19.90
  11  19.30 19.30 19.30 19.30 19.30 19.30 19.30 19.30 19.30 19.30 19.30 19.30 19.30 19.30 19.30 19.30 19.30 19.30 19.30 19.30
      19.30
  12  18.70 18.70 18.70 18.70 18.70 18.70 18.70 18.70 18.70 18.70 18.70 18.70 18.70 18.70 18.70 18.70 18.70 18.70 18.70 18.70
      18.70
  13  18.10 18.10 18.10 18.10 18.10 18.10 18.10 18.10 18.10 18.10 18.10 18.10 18.10 18.10 18.10 18.10 18.10 18.10 18.10 18.10
      18.10
  14  17.50 17.50 17.50 17.50 17.50 17.50 17.50 17.50 17.50 17.50 17.50 17.50 17.50 17.50 17.50 17.50 17.50 17.50 17.50 17.50
      17.50
  15  16.90 16.90 16.90 16.90 16.90 16.90 16.90 16.90 16.90 16.90 16.90 16.90 16.90 16.90 16.90 16.90 16.90 16.90 16.90 16.90
      16.90
  16  16.30 16.30 16.30 16.30 16.30 16.30 16.30 16.30 16.30 16.30 16.30 16.30 16.30 16.30 16.30 16.30 16.30 16.30 16.30 16.30
      16.30
  17  15.70 15.70 15.70 15.70 15.70 15.70 15.70 15.70 15.70 15.70 15.70 15.70 15.70 15.70 15.70 15.70 15.70 15.70 15.70 15.70
      15.70
  18  15.10 15.10 15.10 15.10 15.10 15.10 15.10 15.10 15.10 15.10 15.10 15.10 15.10 15.10 15.10 15.10 15.10 15.10 15.10 15.10
      15.10
  19  14.50 14.50 14.50 14.50 14.50 14.50 14.50 14.50 14.50 14.50 14.50 14.50 14.50 14.50 14.50 14.50 14.50 14.50 14.50 14.50
      14.50
  20  13.90 13.90 13.90 13.90 13.90 13.90 13.90 13.90 13.90 13.90 13.90 13.90 13.90 13.90 13.90 13.90 13.90 13.90 13.90 13.90
      13.90
  21  13.30 13.30 13.30 13.30 13.30 13.30 13.30 13.30 13.30 13.30 13.30 13.30 13.30 13.30 13.30 13.30 13.30 13.30 13.30 13.30
      13.30
  22  12.70 12.70 12.70 12.70 12.70 12.70 12.70 12.70 12.70 12.70 12.70 12.70 12.70 12.70 12.70 12.70 12.70 12.70 12.70 12.70
      12.70
  23  12.10 12.10 12.10 12.10 12.10 12.10 12.10 12.10 12.10 12.10 12.10 12.10 12.10 12.10 12.10 12.10 12.10 12.10 12.10 12.10
      12.10
  24  11.50 11.50 11.50 11.50 11.50 11.50 11.50 11.50 11.50 11.50 11.50 11.50 11.50 11.50 11.50 11.50 11.50 11.50 11.50 11.50
      11.50
  25  10.90 10.90 10.90 10.90 10.90 10.90 10.90 10.90 10.90 10.90 10.90 10.90 10.90 10.90 10.90 10.90 10.90 10.90 10.90 10.90
      10.90
  26  10.30 10.30 10.30 10.30 10.30 10.30 10.30 10.30 10.30 10.30 10.30 10.30 10.30 10.30 10.30 10.30 10.30 10.30 10.30 10.30
      10.30
  27   9.70  9.70  9.70  9.70  9.70  9.70  9.70  9.70  9.70  9.70  9.70  9.70  9.70  9.70  9.70  9.70  9.70  9.70  9.70  9.70
       9.70
  28   9.10  9.10  9.10  9.10  9.10  9.10  9.10  9.10  9.10  9.10  9.10  9.10  9.10  9.10  9.10  9.10  9.10  9.10  9.10  9.10
       9.10
  29   8.50  8.50  8.50  8.50  8.50  8.50  8.50  8.50  8.50  8.50  8.50  8.50  8.50  8.50  8.50  8.50  8.50  8.50  8.50  8.50
       8.50
  30   7.90  7.90  7.90  7.90  7.90  7.90  7.90  7.90  7.90  7.90  7.90  7.90  7.90  7.90  7.90  7.90  7.90  7.90  7.90  7.90
       7.90
  31   7.30  7.30  7.30  7.30  7.30  7.30  7.30  7.30  7.30  7.30  7.30  7.30  7.30  7.30  7.30  7.30  7.30  7.30  7.30  7.30
       7.30
  32   6.70  6.70  6.70  6.70  6.70  6.70  6.70  6.70  6.70  6.70  6.70  6.70  6.70  6.70  6.70  6.70  6.70  6.70  6.70  6.70
       6.70
  33   6.10  6.10  6.10  6.10  6.10  6.10  6.10  6.10  6.10  6.10  6.10  6.10  6.10  6.10  6.10  6.10  6.10  6.10  6.10  6.10
       6.10
  34   5.50  5.50  5.50  5.50  5.50  5.50  5.50  5.50  5.50  5.50  5.50  5.50  5.50  5.50  5.50  5.50  5.50  5.50  5.50  5.50
       5.50
  35   4.90  4.90  4.90  4.90  4.90  4.90  4.90  4.90  4.90  4.90  4.90  4.90  4.90  4.90  4.90  4.90  4.90  4.90  4.90  4.90
       4.90
  36   4.30  4.30  4.30  4.30  4.30  4.30  4.30  4.30  4.30  4.30  4.30  4.30  4.30  4.30  4.30  4.30  4.30  4.30  4.30  4.30
       4.30
  37   3.70  3.70  3.70  3.70  3.70  3.70  3.70  3.70  3.70  3.70  3.70  3.70  3.70  3.70  3.70  3.70  3.70  3.70  3.70  3.70
       3.70
  38   3.10  3.10  3.10  3.10  3.10  3.10  3.10  3.10  3.10  3.10  3.10  3.10  3.10  3.10  3.10  3.10  3.10  3.10  3.10  3.10
       3.10
  39   2.50  2.50  2.50  2.50  2.50  2.50  2.50  2.50  2.50  2.50  2.50  2.50  2.50  2.50  2.50  2.50  2.50  2.50  2.50  2.50
       2.50
  40   1.90  1.90  1.90  1.90  1.90  1.90  1.90  1.90  1.90  1.90  1.90  1.90  1.90  1.90  1.90  1.90  1.90  1.90  1.90  1.90
       1.90
  41   1.30  1.30  1.30  1.30  1.30  1.30  1.30  1.30  1.30  1.30  1.30  1.30  1.30  1.30  1.30  1.30  1.30  1.30  1.30  1.30
       1.30

 OUTPUT CONTROL IS SPECIFIED ONLY AT TIME STEPS FOR WHICH OUTPUT IS DESIRED
 HEAD PRINT FORMAT CODE IS   6    DRAWDOWN PRINT FORMAT CODE IS   6
 HEADS WILL BE SAVED ON UNIT    0    DRAWDOWNS WILL BE SAVED ON UNIT    0

 COLUMN TO ROW ANISOTROPY =   1.00000    

     PRIMARY STORAGE COEF =  0.200000     FOR LAYER   1

     TRANSMIS. ALONG ROWS =   10000.0     FOR LAYER   1


     0 Well parameters
1
                            STRESS PERIOD NO.    1, LENGTH =  0.6667000    
                            -----------------------------------------------

                              NUMBER OF TIME STEPS =    32

                               MULTIPLIER FOR DELT =     1.000

                            INITIAL TIME STEP SIZE =  0.2083438E-01

 WELL NO.  LAYER   ROW   COL   STRESS RATE         
 --------------------------------------------------
      1      1      1      1       6000.    
      2      1      1      2       6000.    
      3      1      1      3       6000.    
      4      1      1      4       6000.    
      5      1      1      5       6000.    
      6      1      1      6       6000.    
      7      1      1      7       6000.    
      8      1      1      8       6000.    
      9      1      1      9       6000.    
     10      1      1     10       6000.    
     11      1      1     11       6000.    
     12      1      1     12       6000.    
     13      1      1     13       6000.    
     14      1      1     14       6000.    
     15      1      1     15       6000.    
     16      1      1     16       6000.    
     17      1      1     17       6000.    
     18      1      1     18       6000.    
     19      1      1     19       6000.    
     20      1      1     20       6000.    
     21      1      1     21       6000.    

     21 WELLS
  No of DAFLOW steps per MODFLOW step =            2
 
 SOLVING FOR HEAD 


     1 CALLS TO PCG ROUTINE FOR TIME STEP   1 IN STRESS PERIOD    1
     1 TOTAL ITERATIONS

 MAXIMUM HEAD CHANGE FOR EACH ITERATION (1 INDICATES THE FIRST INNER ITERATION):

    HEAD CHANGE    HEAD CHANGE    HEAD CHANGE    HEAD CHANGE    HEAD CHANGE 
   LAYER,ROW,COL  LAYER,ROW,COL  LAYER,ROW,COL  LAYER,ROW,COL  LAYER,ROW,COL
 ---------------------------------------------------------------------------
  1  0.8901E-06
   (  1,  2,  6)

 MAXIMUM RESIDUAL FOR EACH ITERATION (1 INDICATES THE FIRST INNER ITERATION):

    RESIDUAL       RESIDUAL       RESIDUAL       RESIDUAL       RESIDUAL    
   LAYER,ROW,COL  LAYER,ROW,COL  LAYER,ROW,COL  LAYER,ROW,COL  LAYER,ROW,COL
 ---------------------------------------------------------------------------
  1 -0.4734E-04
   (  1,  3,  2)



 OUTPUT CONTROL FOR STRESS PERIOD    1   TIME STEP   1
    PRINT HEAD FOR ALL LAYERS
    PRINT BUDGET
 Day   1  Hour  0.12 Branch  node  Discharge
                          1    12     0.000    
                          3    32     0.000    
 Day   1  Hour  0.38 Branch  node  Discharge
                          1    12     0.000    
                          3    32     0.000    
1
              HEAD IN LAYER   1 AT END OF TIME STEP   1 IN STRESS PERIOD    1
  ---------------------------------------------------------------------------

           1       2       3       4       5       6       7       8       9      10      11      12      13      14      15
          16      17      18      19      20      21
 ...........................................................................................................................
   1  25.3000 25.3000 25.3000 25.3000 25.3000 25.3000 25.3000 25.3000 25.3000 25.3000 25.3000 25.3000 25.3000 25.3000 25.3000
      25.3000 25.3000 25.3000 25.3000 25.3000 25.3000
   2  24.7000 24.7000 24.7000 24.7000 24.7000 24.7000 24.7000 24.7000 24.7000 24.7000 24.7000 24.7000 24.7000 24.7000 24.7000
      24.7000 24.7000 24.7000 24.7000 24.7000 24.7000
   3  24.1000 24.1000 24.1000 24.1000 24.1000 24.1000 24.1000 24.1000 24.1000 24.1000 24.1000 24.1000 24.1000 24.1000 24.1000
      24.1000 24.1000 24.1000 24.1000 24.1000 24.1000
   4  23.5000 23.5000 23.5000 23.5000 23.5000 23.5000 23.5000 23.5000 23.5000 23.5000 23.5000 23.5000 23.5000 23.5000 23.5000
      23.5000 23.5000 23.5000 23.5000 23.5000 23.5000
   5  22.9000 22.9000 22.9000 22.9000 22.9000 22.9000 22.9000 22.9000 22.9000 22.9000 22.9000 22.9000 22.9000 22.9000 22.9000
      22.9000 22.9000 22.9000 22.9000 22.9000 22.9000
   6  22.3000 22.3000 22.3000 22.3000 22.3000 22.3000 22.3000 22.3000 22.3000 22.3000 22.3000 22.3000 22.3000 22.3000 22.3000
      22.3000 22.3000 22.3000 22.3000 22.3000 22.3000
   7  21.7000 21.7000 21.7000 21.7000 21.7000 21.7000 21.7000 21.7000 21.7000 21.7000 21.7000 21.7000 21.7000 21.7000 21.7000
      21.7000 21.7000 21.7000 21.7000 21.7000 21.7000
   8  21.1000 21.1000 21.1000 21.1000 21.1000 21.1000 21.1000 21.1000 21.1000 21.1000 21.1000 21.1000 21.1000 21.1000 21.1000
      21.1000 21.1000 21.1000 21.1000 21.1000 21.1000
   9  20.5000 20.5000 20.5000 20.5000 20.5000 20.5000 20.5000 20.5000 20.5000 20.5000 20.5000 20.5000 20.5000 20.5000 20.5000
      20.5000 20.5000 20.5000 20.5000 20.5000 20.5000
  10  19.9000 19.9000 19.9000 19.9000 19.9000 19.9000 19.9000 19.9000 19.9000 19.9000 19.9000 19.9000 19.9000 19.9000 19.9000
      19.9000 19.9000 19.9000 19.9000 19.9000 19.9000
  11  19.3000 19.3000 19.3000 19.3000 19.3000 19.3000 19.3000 19.3000 19.3000 19.3000 19.3000 19.3000 19.3000 19.3000 19.3000
      19.3000 19.3000 19.3000 19.3000 19.3000 19.3000
  12  18.7000 18.7000 18.7000 18.7000 18.7000 18.7000 18.7000 18.7000 18.7000 18.7000 18.7000 18.7000 18.7000 18.7000 18.7000
      18.7000 18.7000 18.7000 18.7000 18.7000 18.7000
  13  18.1000 18.1000 18.1000 18.1000 18.1000 18.1000 18.1000 18.1000 18.1000 18.1000 18.1000 18.1000 18.1000 18.1000 18.1000
      18.1000 18.1000 18.1000 18.1000 18.1000 18.1000
  14  17.5000 17.5000 17.5000 17.5000 17.5000 17.5000 17.5000 17.5000 17.5000 17.5000 17.5000 17.5000 17.5000 17.5000 17.5000
      17.5000 17.5000 17.5000 17.5000 17.5000 17.5000
  15  16.9000 16.9000 16.9000 16.9000 16.9000 16.9000 16.9000 16.9000 16.9000 16.9000 16.9000 16.9000 16.9000 16.9000 16.9000
      16.9000 16.9000 16.9000 16.9000 16.9000 16.9000
  16  16.3000 16.3000 16.3000 16.3000 16.3000 16.3000 16.3000 16.3000 16.3000 16.3000 16.3000 16.3000 16.3000 16.3000 16.3000
      16.3000 16.3000 16.3000 16.3000 16.3000 16.3000
  17  15.7000 15.7000 15.7000 15.7000 15.7000 15.7000 15.7000 15.7000 15.7000 15.7000 15.7000 15.7000 15.7000 15.7000 15.7000
      15.7000 15.7000 15.7000 15.7000 15.7000 15.7000
  18  15.1000 15.1000 15.1000 15.1000 15.1000 15.1000 15.1000 15.1000 15.1000 15.1000 15.1000 15.1000 15.1000 15.1000 15.1000
      15.1000 15.1000 15.1000 15.1000 15.1000 15.1000
  19  14.5000 14.5000 14.5000 14.5000 14.5000 14.5000 14.5000 14.5000 14.5000 14.5000 14.5000 14.5000 14.5000 14.5000 14.5000
      14.5000 14.5000 14.5000 14.5000 14.5000 14.5000
  20  13.9000 13.9000 13.9000 13.9000 13.9000 13.9000 13.9000 13.9000 13.9000 13.9000 13.9000 13.9000 13.9000 13.9000 13.9000
      13.9000 13.9000 13.9000 13.9000 13.9000 13.9000
  21  13.3000 13.3000 13.3000 13.3000 13.3000 13.3000 13.3000 13.3000 13.3000 13.3000 13.3000 13.3000 13.3000 13.3000 13.3000
      13.3000 13.3000 13.3000 13.3000 13.3000 13.3000
  22  12.7000 12.7000 12.7000 12.7000 12.7000 12.7000 12.7000 12.7000 12.7000 12.7000 12.7000 12.7000 12.7000 12.7000 12.7000
      12.7000 12.7000 12.7000 12.7000 12.7000 12.7000
  23  12.1000 12.1000 12.1000 12.1000 12.1000 12.1000 12.1000 12.1000 12.1000 12.1000 12.1000 12.1000 12.1000 12.1000 12.1000
      12.1000 12.1000 12.1000 12.1000 12.1000 12.1000
  24  11.5000 11.5000 11.5000 11.5000 11.5000 11.5000 11.5000 11.5000 11.5000 11.5000 11.5000 11.5000 11.5000 11.5000 11.5000
      11.5000 11.5000 11.5000 11.5000 11.5000 11.5000
  25  10.9000 10.9000 10.9000 10.9000 10.9000 10.9000 10.9000 10.9000 10.9000 10.9000 10.9000 10.9000 10.9000 10.9000 10.9000
      10.9000 10.9000 10.9000 10.9000 10.9000 10.9000
  26  10.3000 10.3000 10.3000 10.3000 10.3000 10.3000 10.3000 10.3000 10.3000 10.3000 10.3000 10.3000 10.3000 10.3000 10.3000
      10.3000 10.3000 10.3000 10.3000 10.3000 10.3000
  27   9.7000  9.7000  9.7000  9.7000  9.7000  9.7000  9.7000  9.7000  9.7000  9.7000  9.7000  9.7000  9.7000  9.7000  9.7000
       9.7000  9.7000  9.7000  9.7000  9.7000  9.7000
  28   9.1000  9.1000  9.1000  9.1000  9.1000  9.1000  9.1000  9.1000  9.1000  9.1000  9.1000  9.1000  9.1000  9.1000  9.1000
       9.1000  9.1000  9.1000  9.1000  9.1000  9.1000
  29   8.5000  8.5000  8.5000  8.5000  8.5000  8.5000  8.5000  8.5000  8.5000  8.5000  8.5000  8.5000  8.5000  8.5000  8.5000
       8.5000  8.5000  8.5000  8.5000  8.5000  8.5000
  30   7.9000  7.9000  7.9000  7.9000  7.9000  7.9000  7.9000  7.9000  7.9000  7.9000  7.9000  7.9000  7.9000  7.9000  7.9000
       7.9000  7.9000  7.9000  7.9000  7.9000  7.9000
  31   7.3000  7.3000  7.3000  7.3000  7.3000  7.3000  7.3000  7.3000  7.3000  7.3000  7.3000  7.3000  7.3000  7.3000  7.3000
       7.3000  7.3000  7.3000  7.3000  7.3000  7.3000
  32   6.7000  6.7000  6.7000  6.7000  6.7000  6.7000  6.7000  6.7000  6.7000  6.7000  6.7000  6.7000  6.7000  6.7000  6.7000
       6.7000  6.7000  6.7000  6.7000  6.7000  6.7000
  33   6.1000  6.1000  6.1000  6.1000  6.1000  6.1000  6.1000  6.1000  6.1000  6.1000  6.1000  6.1000  6.1000  6.1000  6.1000
       6.1000  6.1000  6.1000  6.1000  6.1000  6.1000
  34   5.5000  5.5000  5.5000  5.5000  5.5000  5.5000  5.5000  5.5000  5.5000  5.5000  5.5000  5.5000  5.5000  5.5000  5.5000
       5.5000  5.5000  5.5000  5.5000  5.5000  5.5000
  35   4.9000  4.9000  4.9000  4.9000  4.9000  4.9000  4.9000  4.9000  4.9000  4.9000  4.9000  4.9000  4.9000  4.9000  4.9000
       4.9000  4.9000  4.9000  4.9000  4.9000  4.9000
  36   4.3000  4.3000  4.3000  4.3000  4.3000  4.3000  4.3000  4.3000  4.3000  4.3000  4.3000  4.3000  4.3000  4.3000  4.3000
       4.3000  4.3000  4.3000  4.3000  4.3000  4.3000
  37   3.7000  3.7000  3.7000  3.7000  3.7000  3.7000  3.7000  3.7000  3.7000  3.7000  3.7000  3.7000  3.7000  3.7000  3.7000
       3.7000  3.7000  3.7000  3.7000  3.7000  3.7000
  38   3.1000  3.1000  3.1000  3.1000  3.1000  3.1000  3.1000  3.1000  3.1000  3.1000  3.1000  3.1000  3.1000  3.1000  3.1000
       3.1000  3.1000  3.1000  3.1000  3.1000  3.1000
  39   2.5000  2.5000  2.5000  2.5000  2.5000  2.5000  2.5000  2.5000  2.5000  2.5000  2.5000  2.5000  2.5000  2.5000  2.5000
       2.5000  2.5000  2.5000  2.5000  2.5000  2.5000
  40   1.9000  1.9000  1.9000  1.9000  1.9000  1.9000  1.9000  1.9000  1.9000  1.9000  1.9000  1.9000  1.9000  1.9000  1.9000
       1.9000  1.9000  1.9000  1.9000  1.9000  1.9000
  41   1.3000  1.3000  1.3000  1.3000  1.3000  1.3000  1.3000  1.3000  1.3000  1.3000  1.3000  1.3000  1.3000  1.3000  1.3000
       1.3000  1.3000  1.3000  1.3000  1.3000  1.3000
1
  VOLUMETRIC BUDGET FOR ENTIRE MODEL AT END OF TIME STEP  1 IN STRESS PERIOD   1
  ------------------------------------------------------------------------------

     CUMULATIVE VOLUMES      L**3       RATES FOR THIS TIME STEP      L**3/T
     ------------------                 ------------------------

           IN:                                      IN:
           ---                                      ---
             STORAGE =           2.4283               STORAGE =         116.5517
       CONSTANT HEAD =           0.0000         CONSTANT HEAD =           0.0000
               WELLS =        2625.1313                 WELLS =      126000.0000
              DAFLOW =           0.0000                DAFLOW =           0.0000

            TOTAL IN =        2627.5596              TOTAL IN =      126116.5547

          OUT:                                     OUT:
          ----                                     ----
             STORAGE =          10.2413               STORAGE =         491.5572
       CONSTANT HEAD =        2625.1316         CONSTANT HEAD =      126000.0078
               WELLS =           0.0000                 WELLS =           0.0000
              DAFLOW =           0.0000                DAFLOW =           0.0000

           TOTAL OUT =        2635.3728             TOTAL OUT =      126491.5625

            IN - OUT =          -7.8132              IN - OUT =        -375.0078

 PERCENT DISCREPANCY =          -0.30     PERCENT DISCREPANCY =          -0.30






          TIME SUMMARY AT END OF TIME STEP   1 IN STRESS PERIOD    1
                    SECONDS     MINUTES      HOURS       DAYS        YEARS
                    -----------------------------------------------------------
   TIME STEP LENGTH  1800.1      30.002     0.50003     2.08344E-02 5.70414E-05
 STRESS PERIOD TIME  1800.1      30.002     0.50003     2.08344E-02 5.70414E-05
         TOTAL TIME  1800.1      30.002     0.50003     2.08344E-02 5.70414E-05
1
  No of DAFLOW steps per MODFLOW step =            2
 
 SOLVING FOR HEAD 
Computed negative flow of    -0.252E-02 at   2 branch  1 node  4
Computed negative flow of    -0.252E-02 at   2 branch  2 node  4
Computed negative flow of    -0.261E-02 at   2 branch  1 node  4
Computed negative flow of    -0.261E-02 at   2 branch  2 node  4
     3 CALLS TO PCG ROUTINE FOR TIME STEP   2 IN STRESS PERIOD    1
     5 TOTAL ITERATIONS

 MAXIMUM HEAD CHANGE FOR EACH ITERATION (1 INDICATES THE FIRST INNER ITERATION):

    HEAD CHANGE    HEAD CHANGE    HEAD CHANGE    HEAD CHANGE    HEAD CHANGE 
   LAYER,ROW,COL  LAYER,ROW,COL  LAYER,ROW,COL  LAYER,ROW,COL  LAYER,ROW,COL
 ---------------------------------------------------------------------------
  1  0.1515E-01  0  0.2549E-06  1  0.2102E-01  0  0.3520E-06  1  0.1640E-04
   (  1,  1, 21)  (  1,  2, 20)  (  1,  1, 21)  (  1,  2, 20)  (  1,  2, 20)

 MAXIMUM RESIDUAL FOR EACH ITERATION (1 INDICATES THE FIRST INNER ITERATION):

    RESIDUAL       RESIDUAL       RESIDUAL       RESIDUAL       RESIDUAL    
   LAYER,ROW,COL  LAYER,ROW,COL  LAYER,ROW,COL  LAYER,ROW,COL  LAYER,ROW,COL
 ---------------------------------------------------------------------------
  1 -0.6220      0 -0.1045E-04  1 -0.8587      0 -0.1443E-04  1  0.1179E-02
   (  1,  2, 20)  (  1,  3, 19)  (  1,  2, 20)  (  1,  3, 19)  (  1,  1,  1)



 NO OUTPUT CONTROL FOR STRESS PERIOD    1   TIME STEP   2
 Day   1  Hour  0.62 Branch  node  Discharge
                          1    12     0.000    
                          3    32     0.000    
 Day   1  Hour  0.88 Branch  node  Discharge
                          1    12     0.000    
                          3    32     0.000    
  No of DAFLOW steps per MODFLOW step =            2
 
 SOLVING FOR HEAD 
Computed negative flow of    -0.235E-02 at   2 branch  1 node  6
Computed negative flow of    -0.235E-02 at   2 branch  2 node  6
Computed negative flow of    -0.128E-02 at   1 branch  1 node  5
Computed negative flow of    -0.128E-02 at   1 branch  2 node  5
Computed negative flow of    -0.893E-02 at   2 branch  1 node  6
Computed negative flow of    -0.893E-02 at   2 branch  2 node  6
Computed negative flow of    -0.130E-02 at   1 branch  1 node  5
Computed negative flow of    -0.130E-02 at   1 branch  2 node  5
Computed negative flow of    -0.122E-02 at   2 branch  1 node  6
Computed negative flow of    -0.122E-02 at   2 branch  2 node  6
Computed negative flow of    -0.125E-02 at   1 branch  1 node  5
Computed negative flow of    -0.125E-02 at   1 branch  2 node  5
Computed negative flow of    -0.103E-02 at   2 branch  1 node  6
Computed negative flow of    -0.103E-02 at   2 branch  2 node  6
     4 CALLS TO PCG ROUTINE FOR TIME STEP   3 IN STRESS PERIOD    1
     7 TOTAL ITERATIONS

 MAXIMUM HEAD CHANGE FOR EACH ITERATION (1 INDICATES THE FIRST INNER ITERATION):

    HEAD CHANGE    HEAD CHANGE    HEAD CHANGE    HEAD CHANGE    HEAD CHANGE 
   LAYER,ROW,COL  LAYER,ROW,COL  LAYER,ROW,COL  LAYER,ROW,COL  LAYER,ROW,COL
 ---------------------------------------------------------------------------
  1  0.8320E-01  0 -0.1601E-05  1  0.4297E-01  0 -0.7872E-06  1 -0.2228E-02
   (  1,  1, 21)  (  1,  2,  2)  (  1,  1, 21)  (  1,  3,  3)  (  1,  4,  4)
  0 -0.4259E-07  1  0.2708E-03
   (  1,  3, 19)  (  1,  3,  3)

 MAXIMUM RESIDUAL FOR EACH ITERATION (1 INDICATES THE FIRST INNER ITERATION):

    RESIDUAL       RESIDUAL       RESIDUAL       RESIDUAL       RESIDUAL    
   LAYER,ROW,COL  LAYER,ROW,COL  LAYER,ROW,COL  LAYER,ROW,COL  LAYER,ROW,COL
 ---------------------------------------------------------------------------
  1   4.149      0 -0.2675E-04  1   2.057      0 -0.2648E-04  1  0.1097    
   (  1,  2,  2)  (  1,  4, 18)  (  1,  2,  2)  (  1,  5,  1)  (  1,  3, 19)
  0  0.2183E-05  1 -0.1110E-01
   (  1,  1, 21)  (  1,  4,  2)



 NO OUTPUT CONTROL FOR STRESS PERIOD    1   TIME STEP   3
 Day   1  Hour  1.12 Branch  node  Discharge
                          1    12     0.000    
                          3    32     0.000    
 Day   1  Hour  1.38 Branch  node  Discharge
                          1    12     0.000    
                          3    32     0.000    
  No of DAFLOW steps per MODFLOW step =            2
 
 SOLVING FOR HEAD 
Computed negative flow of    -0.872E-02 at   1 branch  1 node  7
Computed negative flow of    -0.872E-02 at   1 branch  2 node  7
Computed negative flow of    -0.903E-02 at   2 branch  1 node  9
Computed negative flow of    -0.903E-02 at   2 branch  2 node  9
Computed negative flow of    -0.848E-02 at   1 branch  1 node  7
Computed negative flow of    -0.848E-02 at   1 branch  2 node  7
Computed negative flow of    -0.526E-02 at   2 branch  1 node  9
Computed negative flow of    -0.526E-02 at   2 branch  2 node  9
Computed negative flow of    -0.901E-02 at   1 branch  1 node  7
Computed negative flow of    -0.901E-02 at   1 branch  2 node  7
Computed negative flow of    -0.858E-02 at   2 branch  1 node  9
Computed negative flow of    -0.858E-02 at   2 branch  2 node  9
Computed negative flow of    -0.907E-02 at   1 branch  1 node  7
Computed negative flow of    -0.907E-02 at   1 branch  2 node  7
Computed negative flow of    -0.894E-02 at   2 branch  1 node  9
Computed negative flow of    -0.894E-02 at   2 branch  2 node  9
Computed negative flow of    -0.903E-02 at   1 branch  1 node  7
Computed negative flow of    -0.903E-02 at   1 branch  2 node  7
Computed negative flow of    -0.886E-02 at   2 branch  1 node  9
Computed negative flow of    -0.886E-02 at   2 branch  2 node  9
     5 CALLS TO PCG ROUTINE FOR TIME STEP   4 IN STRESS PERIOD    1
     9 TOTAL ITERATIONS

 MAXIMUM HEAD CHANGE FOR EACH ITERATION (1 INDICATES THE FIRST INNER ITERATION):

    HEAD CHANGE    HEAD CHANGE    HEAD CHANGE    HEAD CHANGE    HEAD CHANGE 
   LAYER,ROW,COL  LAYER,ROW,COL  LAYER,ROW,COL  LAYER,ROW,COL  LAYER,ROW,COL
 ---------------------------------------------------------------------------
  1  0.1553      0 -0.2718E-05  1  0.8250E-01  0  0.1386E-05  1 -0.7486E-02
   (  1,  1, 21)  (  1,  3,  3)  (  1,  4,  4)  (  1,  3,  5)  (  1,  5,  5)
  0 -0.1258E-06  1  0.1076E-02  0  0.1808E-07  1 -0.9430E-04
   (  1,  4,  6)  (  1,  5,  5)  (  1,  4,  6)  (  1,  6,  6)

 MAXIMUM RESIDUAL FOR EACH ITERATION (1 INDICATES THE FIRST INNER ITERATION):

    RESIDUAL       RESIDUAL       RESIDUAL       RESIDUAL       RESIDUAL    
   LAYER,ROW,COL  LAYER,ROW,COL  LAYER,ROW,COL  LAYER,ROW,COL  LAYER,ROW,COL
 ---------------------------------------------------------------------------
  1   7.179      0 -0.9388E-04  1   3.616      0 -0.5680E-04  1  0.3068    
   (  1,  3,  3)  (  1,  1,  5)  (  1,  4,  4)  (  1,  6,  2)  (  1,  6,  4)
  0  0.5154E-05  1 -0.4412E-01  0 -0.7410E-06  1  0.3865E-02
   (  1,  3,  7)  (  1,  6,  4)  (  1,  3,  7)  (  1,  5,  7)



 OUTPUT CONTROL FOR STRESS PERIOD    1   TIME STEP   4
    PRINT DRAWDOWN FOR ALL LAYERS
    PRINT BUDGET
 Day   1  Hour  1.62 Branch  node  Discharge
                          1    12     0.000    
                          3    32     0.000    
 Day   1  Hour  1.88 Branch  node  Discharge
                          1    12     0.000    
                          3    32     0.000    
1
          DRAWDOWN IN LAYER   1 AT END OF TIME STEP   4 IN STRESS PERIOD    1
  ---------------------------------------------------------------------------

           1       2       3       4       5       6       7       8       9      10      11      12      13      14      15
          16      17      18      19      20      21
 ...........................................................................................................................
   1  -0.3747 -0.0040  0.0000  0.0000  0.0000  0.0000  0.0000  0.0000  0.0000  0.0000  0.0000  0.0000  0.0000  0.0000  0.0000
       0.0000  0.0000  0.0000  0.0000 -0.0040 -0.3747
   2  -0.0040 -0.2891 -0.0029  0.0000  0.0000  0.0000  0.0000  0.0000  0.0000  0.0000  0.0000  0.0000  0.0000  0.0000  0.0000
       0.0000  0.0000  0.0000 -0.0029 -0.2891 -0.0040
   3   0.0000 -0.0029 -0.2502 -0.0021  0.0000  0.0000  0.0000  0.0000  0.0000  0.0000  0.0000  0.0000  0.0000  0.0000  0.0000
       0.0000  0.0000 -0.0021 -0.2502 -0.0029  0.0000
   4   0.0000  0.0000 -0.0021 -0.1892 -0.0012  0.0000  0.0000  0.0000  0.0000  0.0000  0.0000  0.0000  0.0000  0.0000  0.0000
       0.0000 -0.0012 -0.1892 -0.0021  0.0000  0.0000
   5   0.0000  0.0000  0.0000 -0.0012 -0.0985 -0.0006  0.0000  0.0000  0.0000  0.0000  0.0000  0.0000  0.0000  0.0000  0.0000
      -0.0006 -0.0985 -0.0012  0.0000  0.0000  0.0000
   6   0.0000  0.0000  0.0000  0.0000 -0.0006 -0.0560 -0.0002  0.0000  0.0000  0.0000  0.0000  0.0000  0.0000  0.0000 -0.0002
      -0.0560 -0.0006  0.0000  0.0000  0.0000  0.0000
   7   0.0000  0.0000  0.0000  0.0000  0.0000 -0.0002 -0.0037  0.0000  0.0000  0.0000  0.0000  0.0000  0.0000  0.0000 -0.0037
      -0.0002  0.0000  0.0000  0.0000  0.0000  0.0000
   8   0.0000  0.0000  0.0000  0.0000  0.0000  0.0000  0.0000  0.0000  0.0000  0.0000  0.0000  0.0000  0.0000  0.0000  0.0000
       0.0000  0.0000  0.0000  0.0000  0.0000  0.0000
   9   0.0000  0.0000  0.0000  0.0000  0.0000  0.0000  0.0000  0.0000  0.0000  0.0000  0.0000  0.0000  0.0000  0.0000  0.0000
       0.0000  0.0000  0.0000  0.0000  0.0000  0.0000
  10   0.0000  0.0000  0.0000  0.0000  0.0000  0.0000  0.0000  0.0000  0.0000  0.0000  0.0000  0.0000  0.0000  0.0000  0.0000
       0.0000  0.0000  0.0000  0.0000  0.0000  0.0000
  11   0.0000  0.0000  0.0000  0.0000  0.0000  0.0000  0.0000  0.0000  0.0000  0.0000  0.0000  0.0000  0.0000  0.0000  0.0000
       0.0000  0.0000  0.0000  0.0000  0.0000  0.0000
  12   0.0000  0.0000  0.0000  0.0000  0.0000  0.0000  0.0000  0.0000  0.0000  0.0000  0.0000  0.0000  0.0000  0.0000  0.0000
       0.0000  0.0000  0.0000  0.0000  0.0000  0.0000
  13   0.0000  0.0000  0.0000  0.0000  0.0000  0.0000  0.0000  0.0000  0.0000  0.0000  0.0000  0.0000  0.0000  0.0000  0.0000
       0.0000  0.0000  0.0000  0.0000  0.0000  0.0000
  14   0.0000  0.0000  0.0000  0.0000  0.0000  0.0000  0.0000  0.0000  0.0000  0.0000  0.0000  0.0000  0.0000  0.0000  0.0000
       0.0000  0.0000  0.0000  0.0000  0.0000  0.0000
  15   0.0000  0.0000  0.0000  0.0000  0.0000  0.0000  0.0000  0.0000  0.0000  0.0000  0.0000  0.0000  0.0000  0.0000  0.0000
       0.0000  0.0000  0.0000  0.0000  0.0000  0.0000
  16   0.0000  0.0000  0.0000  0.0000  0.0000  0.0000  0.0000  0.0000  0.0000  0.0000  0.0000  0.0000  0.0000  0.0000  0.0000
       0.0000  0.0000  0.0000  0.0000  0.0000  0.0000
  17   0.0000  0.0000  0.0000  0.0000  0.0000  0.0000  0.0000  0.0000  0.0000  0.0000  0.0000  0.0000  0.0000  0.0000  0.0000
       0.0000  0.0000  0.0000  0.0000  0.0000  0.0000
  18   0.0000  0.0000  0.0000  0.0000  0.0000  0.0000  0.0000  0.0000  0.0000  0.0000  0.0000  0.0000  0.0000  0.0000  0.0000
       0.0000  0.0000  0.0000  0.0000  0.0000  0.0000
  19   0.0000  0.0000  0.0000  0.0000  0.0000  0.0000  0.0000  0.0000  0.0000  0.0000  0.0000  0.0000  0.0000  0.0000  0.0000
       0.0000  0.0000  0.0000  0.0000  0.0000  0.0000
  20   0.0000  0.0000  0.0000  0.0000  0.0000  0.0000  0.0000  0.0000  0.0000  0.0000  0.0000  0.0000  0.0000  0.0000  0.0000
       0.0000  0.0000  0.0000  0.0000  0.0000  0.0000
  21   0.0000  0.0000  0.0000  0.0000  0.0000  0.0000  0.0000  0.0000  0.0000  0.0000  0.0000  0.0000  0.0000  0.0000  0.0000
       0.0000  0.0000  0.0000  0.0000  0.0000  0.0000
  22   0.0000  0.0000  0.0000  0.0000  0.0000  0.0000  0.0000  0.0000  0.0000  0.0000  0.0000  0.0000  0.0000  0.0000  0.0000
       0.0000  0.0000  0.0000  0.0000  0.0000  0.0000
  23   0.0000  0.0000  0.0000  0.0000  0.0000  0.0000  0.0000  0.0000  0.0000  0.0000  0.0000  0.0000  0.0000  0.0000  0.0000
       0.0000  0.0000  0.0000  0.0000  0.0000  0.0000
  24   0.0000  0.0000  0.0000  0.0000  0.0000  0.0000  0.0000  0.0000  0.0000  0.0000  0.0000  0.0000  0.0000  0.0000  0.0000
       0.0000  0.0000  0.0000  0.0000  0.0000  0.0000
  25   0.0000  0.0000  0.0000  0.0000  0.0000  0.0000  0.0000  0.0000  0.0000  0.0000  0.0000  0.0000  0.0000  0.0000  0.0000
       0.0000  0.0000  0.0000  0.0000  0.0000  0.0000
  26   0.0000  0.0000  0.0000  0.0000  0.0000  0.0000  0.0000  0.0000  0.0000  0.0000  0.0000  0.0000  0.0000  0.0000  0.0000
       0.0000  0.0000  0.0000  0.0000  0.0000  0.0000
  27   0.0000  0.0000  0.0000  0.0000  0.0000  0.0000  0.0000  0.0000  0.0000  0.0000  0.0000  0.0000  0.0000  0.0000  0.0000
       0.0000  0.0000  0.0000  0.0000  0.0000  0.0000
  28   0.0000  0.0000  0.0000  0.0000  0.0000  0.0000  0.0000  0.0000  0.0000  0.0000  0.0000  0.0000  0.0000  0.0000  0.0000
       0.0000  0.0000  0.0000  0.0000  0.0000  0.0000
  29   0.0000  0.0000  0.0000  0.0000  0.0000  0.0000  0.0000  0.0000  0.0000  0.0000  0.0000  0.0000  0.0000  0.0000  0.0000
       0.0000  0.0000  0.0000  0.0000  0.0000  0.0000
  30   0.0000  0.0000  0.0000  0.0000  0.0000  0.0000  0.0000  0.0000  0.0000  0.0000  0.0000  0.0000  0.0000  0.0000  0.0000
       0.0000  0.0000  0.0000  0.0000  0.0000  0.0000
  31   0.0000  0.0000  0.0000  0.0000  0.0000  0.0000  0.0000  0.0000  0.0000  0.0000  0.0000  0.0000  0.0000  0.0000  0.0000
       0.0000  0.0000  0.0000  0.0000  0.0000  0.0000
  32   0.0000  0.0000  0.0000  0.0000  0.0000  0.0000  0.0000  0.0000  0.0000  0.0000  0.0000  0.0000  0.0000  0.0000  0.0000
       0.0000  0.0000  0.0000  0.0000  0.0000  0.0000
  33   0.0000  0.0000  0.0000  0.0000  0.0000  0.0000  0.0000  0.0000  0.0000  0.0000  0.0000  0.0000  0.0000  0.0000  0.0000
       0.0000  0.0000  0.0000  0.0000  0.0000  0.0000
  34   0.0000  0.0000  0.0000  0.0000  0.0000  0.0000  0.0000  0.0000  0.0000  0.0000  0.0000  0.0000  0.0000  0.0000  0.0000
       0.0000  0.0000  0.0000  0.0000  0.0000  0.0000
  35   0.0000  0.0000  0.0000  0.0000  0.0000  0.0000  0.0000  0.0000  0.0000  0.0000  0.0000  0.0000  0.0000  0.0000  0.0000
       0.0000  0.0000  0.0000  0.0000  0.0000  0.0000
  36   0.0000  0.0000  0.0000  0.0000  0.0000  0.0000  0.0000  0.0000  0.0000  0.0000  0.0000  0.0000  0.0000  0.0000  0.0000
       0.0000  0.0000  0.0000  0.0000  0.0000  0.0000
  37   0.0000  0.0000  0.0000  0.0000  0.0000  0.0000  0.0000  0.0000  0.0000  0.0000  0.0000  0.0000  0.0000  0.0000  0.0000
       0.0000  0.0000  0.0000  0.0000  0.0000  0.0000
  38   0.0000  0.0000  0.0000  0.0000  0.0000  0.0000  0.0000  0.0000  0.0000  0.0000  0.0000  0.0000  0.0000  0.0000  0.0000
       0.0000  0.0000  0.0000  0.0000  0.0000  0.0000
  39   0.0000  0.0000  0.0000  0.0000  0.0000  0.0000  0.0000  0.0000  0.0000  0.0000  0.0000  0.0000  0.0000  0.0000  0.0000
       0.0000  0.0000  0.0000  0.0000  0.0000  0.0000
  40   0.0000  0.0000  0.0000  0.0000  0.0000  0.0000  0.0000  0.0000  0.0000  0.0000  0.0000  0.0000  0.0000  0.0000  0.0000
       0.0000  0.0000  0.0000  0.0000  0.0000  0.0000
  41   0.0000  0.0000  0.0000  0.0000  0.0000  0.0000  0.0000  0.0000  0.0000  0.0000  0.0000  0.0000  0.0000  0.0000  0.0000
       0.0000  0.0000  0.0000  0.0000  0.0000  0.0000
1
  VOLUMETRIC BUDGET FOR ENTIRE MODEL AT END OF TIME STEP  4 IN STRESS PERIOD   1
  ------------------------------------------------------------------------------

     CUMULATIVE VOLUMES      L**3       RATES FOR THIS TIME STEP      L**3/T
     ------------------                 ------------------------

           IN:                                      IN:
           ---                                      ---
             STORAGE =           9.5958               STORAGE =         108.4657
       CONSTANT HEAD =           0.0000         CONSTANT HEAD =           0.0000
               WELLS =       10500.5254                 WELLS =      126000.0000
              DAFLOW =      128390.2500                DAFLOW =     4465401.5000

            TOTAL IN =      138900.3750              TOTAL IN =     4591510.0000

          OUT:                                     OUT:
          ----                                     ----
             STORAGE =      128430.4688               STORAGE =     4465972.5000
       CONSTANT HEAD =       10500.5264         CONSTANT HEAD =      126000.0078
               WELLS =           0.0000                 WELLS =           0.0000
              DAFLOW =       4.4597E-05                DAFLOW =       1.3248E-03

           TOTAL OUT =      138931.0000             TOTAL OUT =     4591972.5000

            IN - OUT =         -30.6250              IN - OUT =        -462.5000

 PERCENT DISCREPANCY =          -0.02     PERCENT DISCREPANCY =          -0.01






          TIME SUMMARY AT END OF TIME STEP   4 IN STRESS PERIOD    1
                    SECONDS     MINUTES      HOURS       DAYS        YEARS
                    -----------------------------------------------------------
   TIME STEP LENGTH  1800.1      30.002     0.50003     2.08344E-02 5.70414E-05
 STRESS PERIOD TIME  7200.4      120.01      2.0001     8.33375E-02 2.28166E-04
         TOTAL TIME  7200.4      120.01      2.0001     8.33375E-02 2.28166E-04
1
  No of DAFLOW steps per MODFLOW step =            2
 
 SOLVING FOR HEAD 
Computed negative flow of    -0.936E-02 at   1 branch  1 node 10
Computed negative flow of    -0.936E-02 at   1 branch  2 node 10
Computed negative flow of    -0.244E-04 at   2 branch  3 node  4
Computed negative flow of    -0.733E-02 at   1 branch  1 node 10
Computed negative flow of    -0.733E-02 at   1 branch  2 node 10
Computed negative flow of    -0.171E-01 at   2 branch  1 node 12
Computed negative flow of    -0.171E-01 at   2 branch  2 node 12
Computed negative flow of    -0.600E-02 at   1 branch  1 node 10
Computed negative flow of    -0.600E-02 at   1 branch  2 node 10
Computed negative flow of    -0.114E-01 at   2 branch  1 node 12
Computed negative flow of    -0.114E-01 at   2 branch  2 node 12
Computed negative flow of    -0.677E-02 at   1 branch  1 node 10
Computed negative flow of    -0.677E-02 at   1 branch  2 node 10
Computed negative flow of    -0.970E-02 at   2 branch  1 node 12
Computed negative flow of    -0.970E-02 at   2 branch  2 node 12
Computed negative flow of    -0.628E-02 at   1 branch  1 node 10
Computed negative flow of    -0.628E-02 at   1 branch  2 node 10
Computed negative flow of    -0.100E-01 at   2 branch  1 node 12
Computed negative flow of    -0.100E-01 at   2 branch  2 node 12
     5 CALLS TO PCG ROUTINE FOR TIME STEP   5 IN STRESS PERIOD    1
     9 TOTAL ITERATIONS

 MAXIMUM HEAD CHANGE FOR EACH ITERATION (1 INDICATES THE FIRST INNER ITERATION):

    HEAD CHANGE    HEAD CHANGE    HEAD CHANGE    HEAD CHANGE    HEAD CHANGE 
   LAYER,ROW,COL  LAYER,ROW,COL  LAYER,ROW,COL  LAYER,ROW,COL  LAYER,ROW,COL
 ---------------------------------------------------------------------------
  1  0.2338      0 -0.3849E-05  1  0.8829E-01  0  0.1483E-05  1 -0.1112E-01
   (  1,  1, 21)  (  1,  4,  4)  (  1,  6,  6)  (  1,  5,  7)  (  1,  9,  9)
  0 -0.2041E-06  1  0.2602E-02  0  0.4616E-07  1 -0.2972E-03
   (  1,  8, 14)  (  1,  9,  9)  (  1,  8, 14)  (  1,  9,  9)

 MAXIMUM RESIDUAL FOR EACH ITERATION (1 INDICATES THE FIRST INNER ITERATION):

    RESIDUAL       RESIDUAL       RESIDUAL       RESIDUAL       RESIDUAL    
   LAYER,ROW,COL  LAYER,ROW,COL  LAYER,ROW,COL  LAYER,ROW,COL  LAYER,ROW,COL
 ---------------------------------------------------------------------------
  1   10.35      0 -0.1458E-03  1  -3.832      0 -0.6078E-04  1  0.5321    
   (  1,  4,  4)  (  1,  6,  2)  (  1,  7, 15)  (  1,  4,  8)  (  1,  8, 14)
  0  0.7653E-05  1 -0.1204      0 -0.1792E-05  1  0.1345E-01
   (  1,  7, 11)  (  1,  8, 14)  (  1,  7, 11)  (  1,  8, 14)



 NO OUTPUT CONTROL FOR STRESS PERIOD    1   TIME STEP   5
 Day   1  Hour  2.12 Branch  node  Discharge
                          1    12     0.000    
                          3    32     0.000    
 Day   1  Hour  2.38 Branch  node  Discharge
                          1    12     0.000    
                          3    32     0.000    
  No of DAFLOW steps per MODFLOW step =            2
 
 SOLVING FOR HEAD 
Computed negative flow of    -0.228E-04 at   1 branch  3 node  5
Computed negative flow of    -0.775E-04 at   1 branch  3 node  4
Computed negative flow of    -0.314E-02 at   2 branch  3 node  7
Computed negative flow of    -0.455E-02 at   2 branch  3 node  7
Computed negative flow of    -0.419E-02 at   2 branch  3 node  7
Computed negative flow of    -0.172E-03 at   1 branch  3 node  4
Computed negative flow of    -0.196E-02 at   2 branch  3 node  7
     5 CALLS TO PCG ROUTINE FOR TIME STEP   6 IN STRESS PERIOD    1
     9 TOTAL ITERATIONS

 MAXIMUM HEAD CHANGE FOR EACH ITERATION (1 INDICATES THE FIRST INNER ITERATION):

    HEAD CHANGE    HEAD CHANGE    HEAD CHANGE    HEAD CHANGE    HEAD CHANGE 
   LAYER,ROW,COL  LAYER,ROW,COL  LAYER,ROW,COL  LAYER,ROW,COL  LAYER,ROW,COL
 ---------------------------------------------------------------------------
  1  0.2752      0 -0.4630E-05  1  0.1970      0  0.3294E-05  1 -0.3103E-01
   (  1,  5,  5)  (  1,  6,  6)  (  1, 11, 11)  (  1, 12, 10)  (  1, 13, 11)
  0 -0.5203E-06  1  0.3143E-02  0  0.5637E-07  1 -0.3815E-03
   (  1, 14, 10)  (  1, 11, 11)  (  1, 10, 12)  (  1, 14, 11)

 MAXIMUM RESIDUAL FOR EACH ITERATION (1 INDICATES THE FIRST INNER ITERATION):

    RESIDUAL       RESIDUAL       RESIDUAL       RESIDUAL       RESIDUAL    
   LAYER,ROW,COL  LAYER,ROW,COL  LAYER,ROW,COL  LAYER,ROW,COL  LAYER,ROW,COL
 ---------------------------------------------------------------------------
  1   12.59      0 -0.1894E-03  1  -8.029      0 -0.1344E-03  1   1.265    
   (  1,  6,  6)  (  1,  3,  7)  (  1, 12, 10)  (  1, 13,  9)  (  1, 14, 10)
  0  0.2120E-04  1 -0.1517      0 -0.2141E-05  1  0.1559E-01
   (  1, 15,  9)  (  1, 10, 12)  (  1, 13,  9)  (  1, 15, 10)



 OUTPUT CONTROL FOR STRESS PERIOD    1   TIME STEP   6
    PRINT BUDGET
 Day   1  Hour  2.62 Branch  node  Discharge
                          1    12     27.50    
                          3    32     0.000    
 Day   1  Hour  2.88 Branch  node  Discharge
                          1    12     153.9    
                          3    32     0.000    
1
  VOLUMETRIC BUDGET FOR ENTIRE MODEL AT END OF TIME STEP  6 IN STRESS PERIOD   1
  ------------------------------------------------------------------------------

     CUMULATIVE VOLUMES      L**3       RATES FOR THIS TIME STEP      L**3/T
     ------------------                 ------------------------

           IN:                                      IN:
           ---                                      ---
             STORAGE =          13.6172               STORAGE =          92.0060
       CONSTANT HEAD =           0.0000         CONSTANT HEAD =           0.0000
               WELLS =       15750.7871                 WELLS =      126000.0000
              DAFLOW =      666561.5000                DAFLOW =    16130303.0000

            TOTAL IN =      682325.8750              TOTAL IN =    16256395.0000

          OUT:                                     OUT:
          ----                                     ----
             STORAGE =      666634.0625               STORAGE =    16131113.0000
       CONSTANT HEAD =       15750.7900         CONSTANT HEAD =      126000.0078
               WELLS =           0.0000                 WELLS =           0.0000
              DAFLOW =       2.5403E-04                DAFLOW =       7.9615E-03

           TOTAL OUT =      682384.8750             TOTAL OUT =    16257113.0000

            IN - OUT =         -59.0000              IN - OUT =        -718.0000

 PERCENT DISCREPANCY =          -0.01     PERCENT DISCREPANCY =           0.00






          TIME SUMMARY AT END OF TIME STEP   6 IN STRESS PERIOD    1
                    SECONDS     MINUTES      HOURS       DAYS        YEARS
                    -----------------------------------------------------------
   TIME STEP LENGTH  1800.1      30.002     0.50003     2.08344E-02 5.70414E-05
 STRESS PERIOD TIME  10801.      180.01      3.0001     0.12501     3.42248E-04
         TOTAL TIME  10801.      180.01      3.0001     0.12501     3.42248E-04
1
  No of DAFLOW steps per MODFLOW step =            2
 
 SOLVING FOR HEAD 
Computed negative flow of    -0.111E-01 at   1 branch  3 node 11
Computed negative flow of    -0.691E-02 at   2 branch  3 node 14
Computed negative flow of    -0.126E-01 at   1 branch  3 node 11
Computed negative flow of    -0.456E-02 at   2 branch  3 node 14
Computed negative flow of    -0.132E-01 at   1 branch  3 node 11
Computed negative flow of    -0.955E-02 at   2 branch  3 node 14
Computed negative flow of    -0.121E-01 at   1 branch  3 node 11
Computed negative flow of    -0.459E-02 at   2 branch  3 node 14
Computed negative flow of    -0.122E-01 at   1 branch  3 node 11
Computed negative flow of    -0.981E-02 at   2 branch  3 node 14
     5 CALLS TO PCG ROUTINE FOR TIME STEP   7 IN STRESS PERIOD    1
     9 TOTAL ITERATIONS

 MAXIMUM HEAD CHANGE FOR EACH ITERATION (1 INDICATES THE FIRST INNER ITERATION):

    HEAD CHANGE    HEAD CHANGE    HEAD CHANGE    HEAD CHANGE    HEAD CHANGE 
   LAYER,ROW,COL  LAYER,ROW,COL  LAYER,ROW,COL  LAYER,ROW,COL  LAYER,ROW,COL
 ---------------------------------------------------------------------------
  1  0.3731      0  0.6224E-05  1  0.1744      0  0.2928E-05  1 -0.1806E-01
   (  1, 11, 11)  (  1, 12, 10)  (  1, 17, 11)  (  1, 18, 10)  (  1, 20, 11)
  0 -0.3035E-06  1  0.3204E-02  0  0.5379E-07  1 -0.3610E-03
   (  1, 21, 10)  (  1, 19, 11)  (  1, 20, 10)  (  1, 20, 11)

 MAXIMUM RESIDUAL FOR EACH ITERATION (1 INDICATES THE FIRST INNER ITERATION):

    RESIDUAL       RESIDUAL       RESIDUAL       RESIDUAL       RESIDUAL    
   LAYER,ROW,COL  LAYER,ROW,COL  LAYER,ROW,COL  LAYER,ROW,COL  LAYER,ROW,COL
 ---------------------------------------------------------------------------
  1  -15.75      0 -0.2538E-03  1  -7.100      0 -0.1192E-03  1  0.7379    
   (  1, 10, 12)  (  1, 13,  9)  (  1, 18, 10)  (  1, 19,  9)  (  1, 21, 10)
  0  0.1240E-04  1 -0.1304      0 -0.2190E-05  1  0.1474E-01
   (  1, 22,  9)  (  1, 20, 10)  (  1, 21,  9)  (  1, 21, 10)



 NO OUTPUT CONTROL FOR STRESS PERIOD    1   TIME STEP   7
 Day   1  Hour  3.12 Branch  node  Discharge
                          1    12     242.6    
                          3    32     0.000    
 Day   1  Hour  3.38 Branch  node  Discharge
                          1    12     302.2    
                          3    32     0.000    
  No of DAFLOW steps per MODFLOW step =            2
 
 SOLVING FOR HEAD 
Computed negative flow of    -0.799E-02 at   1 branch  3 node 18
Computed negative flow of    -0.769E-02 at   2 branch  3 node 21
Computed negative flow of    -0.841E-02 at   1 branch  3 node 17
Computed negative flow of    -0.113E-01 at   2 branch  3 node 21
Computed negative flow of    -0.148E-01 at   1 branch  3 node 17
Computed negative flow of    -0.463E-02 at   2 branch  3 node 21
Computed negative flow of    -0.110E-01 at   1 branch  3 node 17
Computed negative flow of    -0.505E-03 at   2 branch  3 node 21
Computed negative flow of    -0.114E-01 at   1 branch  3 node 17
Computed negative flow of    -0.447E-02 at   2 branch  3 node 21
     5 CALLS TO PCG ROUTINE FOR TIME STEP   8 IN STRESS PERIOD    1
     9 TOTAL ITERATIONS

 MAXIMUM HEAD CHANGE FOR EACH ITERATION (1 INDICATES THE FIRST INNER ITERATION):

    HEAD CHANGE    HEAD CHANGE    HEAD CHANGE    HEAD CHANGE    HEAD CHANGE 
   LAYER,ROW,COL  LAYER,ROW,COL  LAYER,ROW,COL  LAYER,ROW,COL  LAYER,ROW,COL
 ---------------------------------------------------------------------------
  1  0.3449      0  0.6615E-05  1  0.1719      0  0.2888E-05  1 -0.2010E-01
   (  1, 11, 11)  (  1, 10, 12)  (  1, 24, 11)  (  1, 25, 10)  (  1, 25, 11)
  0 -0.3379E-06  1  0.3410E-02  0  0.5720E-07  1 -0.2944E-03
   (  1, 26, 10)  (  1, 27, 11)  (  1, 28, 10)  (  1, 28, 11)

 MAXIMUM RESIDUAL FOR EACH ITERATION (1 INDICATES THE FIRST INNER ITERATION):

    RESIDUAL       RESIDUAL       RESIDUAL       RESIDUAL       RESIDUAL    
   LAYER,ROW,COL  LAYER,ROW,COL  LAYER,ROW,COL  LAYER,ROW,COL  LAYER,ROW,COL
 ---------------------------------------------------------------------------
  1  -18.05      0 -0.2336E-03  1  -6.993      0 -0.1175E-03  1  0.8221    
   (  1, 10, 12)  (  1, 13,  9)  (  1, 25, 10)  (  1, 26,  9)  (  1, 26, 10)
  0  0.1382E-04  1 -0.1390      0 -0.2332E-05  1  0.1204E-01
   (  1, 27,  9)  (  1, 28, 10)  (  1, 29,  9)  (  1, 29, 10)



 OUTPUT CONTROL FOR STRESS PERIOD    1   TIME STEP   8
    PRINT DRAWDOWN FOR ALL LAYERS
    PRINT BUDGET
 Day   1  Hour  3.62 Branch  node  Discharge
                          1    12     339.4    
                          3    32     0.000    
 Day   1  Hour  3.88 Branch  node  Discharge
                          1    12     351.8    
                          3    32     0.000    
1
          DRAWDOWN IN LAYER   1 AT END OF TIME STEP   8 IN STRESS PERIOD    1
  ---------------------------------------------------------------------------

           1       2       3       4       5       6       7       8       9      10      11      12      13      14      15
          16      17      18      19      20      21
 ...........................................................................................................................
   1  -1.3629 -0.0363 -0.0007  0.0000  0.0000  0.0000  0.0000  0.0000  0.0000  0.0000  0.0000  0.0000  0.0000  0.0000  0.0000
       0.0000  0.0000  0.0000 -0.0007 -0.0363 -1.3629
   2  -0.0363 -1.2809 -0.0327 -0.0006  0.0000  0.0000  0.0000  0.0000  0.0000  0.0000  0.0000  0.0000  0.0000  0.0000  0.0000
       0.0000  0.0000 -0.0006 -0.0327 -1.2809 -0.0363
   3  -0.0007 -0.0327 -1.2539 -0.0306 -0.0005  0.0000  0.0000  0.0000  0.0000  0.0000  0.0000  0.0000  0.0000  0.0000  0.0000
       0.0000 -0.0005 -0.0306 -1.2539 -0.0327 -0.0007
   4   0.0000 -0.0006 -0.0306 -1.2197 -0.0281 -0.0005  0.0000  0.0000  0.0000  0.0000  0.0000  0.0000  0.0000  0.0000  0.0000
      -0.0005 -0.0281 -1.2197 -0.0306 -0.0006  0.0000
   5   0.0000  0.0000 -0.0005 -0.0281 -1.1745 -0.0252 -0.0004  0.0000  0.0000  0.0000  0.0000  0.0000  0.0000  0.0000 -0.0004
      -0.0252 -1.1745 -0.0281 -0.0005  0.0000  0.0000
   6   0.0000  0.0000  0.0000 -0.0005 -0.0252 -1.1119 -0.0217 -0.0003  0.0000  0.0000  0.0000  0.0000  0.0000 -0.0003 -0.0217
      -1.1119 -0.0252 -0.0005  0.0000  0.0000  0.0000
   7   0.0000  0.0000  0.0000  0.0000 -0.0004 -0.0217 -1.0158 -0.0187 -0.0003  0.0000  0.0000  0.0000 -0.0003 -0.0187 -1.0158
      -0.0217 -0.0004  0.0000  0.0000  0.0000  0.0000
   8   0.0000  0.0000  0.0000  0.0000  0.0000 -0.0003 -0.0187 -0.9601 -0.0170 -0.0002  0.0000 -0.0002 -0.0170 -0.9601 -0.0187
      -0.0003  0.0000  0.0000  0.0000  0.0000  0.0000
   9   0.0000  0.0000  0.0000  0.0000  0.0000  0.0000 -0.0003 -0.0170 -0.9221 -0.0153 -0.0004 -0.0153 -0.9221 -0.0170 -0.0003
       0.0000  0.0000  0.0000  0.0000  0.0000  0.0000
  10   0.0000  0.0000  0.0000  0.0000  0.0000  0.0000  0.0000 -0.0002 -0.0153 -0.8718 -0.0229 -0.8718 -0.0153 -0.0002  0.0000
       0.0000  0.0000  0.0000  0.0000  0.0000  0.0000
  11   0.0000  0.0000  0.0000  0.0000  0.0000  0.0000  0.0000  0.0000 -0.0002 -0.0158 -1.0999 -0.0158 -0.0002  0.0000  0.0000
       0.0000  0.0000  0.0000  0.0000  0.0000  0.0000
  12   0.0000  0.0000  0.0000  0.0000  0.0000  0.0000  0.0000  0.0000  0.0000 -0.0063 -0.8504 -0.0063  0.0000  0.0000  0.0000
       0.0000  0.0000  0.0000  0.0000  0.0000  0.0000
  13   0.0000  0.0000  0.0000  0.0000  0.0000  0.0000  0.0000  0.0000  0.0000 -0.0054 -0.7894 -0.0054  0.0000  0.0000  0.0000
       0.0000  0.0000  0.0000  0.0000  0.0000  0.0000
  14   0.0000  0.0000  0.0000  0.0000  0.0000  0.0000  0.0000  0.0000  0.0000 -0.0047 -0.7147 -0.0047  0.0000  0.0000  0.0000
       0.0000  0.0000  0.0000  0.0000  0.0000  0.0000
  15   0.0000  0.0000  0.0000  0.0000  0.0000  0.0000  0.0000  0.0000  0.0000 -0.0044 -0.6908 -0.0044  0.0000  0.0000  0.0000
       0.0000  0.0000  0.0000  0.0000  0.0000  0.0000
  16   0.0000  0.0000  0.0000  0.0000  0.0000  0.0000  0.0000  0.0000  0.0000 -0.0041 -0.6689 -0.0041  0.0000  0.0000  0.0000
       0.0000  0.0000  0.0000  0.0000  0.0000  0.0000
  17   0.0000  0.0000  0.0000  0.0000  0.0000  0.0000  0.0000  0.0000  0.0000 -0.0040 -0.6607 -0.0040  0.0000  0.0000  0.0000
       0.0000  0.0000  0.0000  0.0000  0.0000  0.0000
  18   0.0000  0.0000  0.0000  0.0000  0.0000  0.0000  0.0000  0.0000  0.0000 -0.0033 -0.5788 -0.0033  0.0000  0.0000  0.0000
       0.0000  0.0000  0.0000  0.0000  0.0000  0.0000
  19   0.0000  0.0000  0.0000  0.0000  0.0000  0.0000  0.0000  0.0000  0.0000 -0.0030 -0.5458 -0.0030  0.0000  0.0000  0.0000
       0.0000  0.0000  0.0000  0.0000  0.0000  0.0000
  20   0.0000  0.0000  0.0000  0.0000  0.0000  0.0000  0.0000  0.0000  0.0000 -0.0022 -0.4563 -0.0022  0.0000  0.0000  0.0000
       0.0000  0.0000  0.0000  0.0000  0.0000  0.0000
  21   0.0000  0.0000  0.0000  0.0000  0.0000  0.0000  0.0000  0.0000  0.0000 -0.0017 -0.3647 -0.0017  0.0000  0.0000  0.0000
       0.0000  0.0000  0.0000  0.0000  0.0000  0.0000
  22   0.0000  0.0000  0.0000  0.0000  0.0000  0.0000  0.0000  0.0000  0.0000 -0.0014 -0.3272 -0.0014  0.0000  0.0000  0.0000
       0.0000  0.0000  0.0000  0.0000  0.0000  0.0000
  23   0.0000  0.0000  0.0000  0.0000  0.0000  0.0000  0.0000  0.0000  0.0000 -0.0013 -0.3207 -0.0013  0.0000  0.0000  0.0000
       0.0000  0.0000  0.0000  0.0000  0.0000  0.0000
  24   0.0000  0.0000  0.0000  0.0000  0.0000  0.0000  0.0000  0.0000  0.0000 -0.0013 -0.3127 -0.0013  0.0000  0.0000  0.0000
       0.0000  0.0000  0.0000  0.0000  0.0000  0.0000
  25   0.0000  0.0000  0.0000  0.0000  0.0000  0.0000  0.0000  0.0000  0.0000 -0.0009 -0.2054 -0.0009  0.0000  0.0000  0.0000
       0.0000  0.0000  0.0000  0.0000  0.0000  0.0000
  26   0.0000  0.0000  0.0000  0.0000  0.0000  0.0000  0.0000  0.0000  0.0000 -0.0007 -0.1760 -0.0007  0.0000  0.0000  0.0000
       0.0000  0.0000  0.0000  0.0000  0.0000  0.0000
  27   0.0000  0.0000  0.0000  0.0000  0.0000  0.0000  0.0000  0.0000  0.0000 -0.0003 -0.0769 -0.0003  0.0000  0.0000  0.0000
       0.0000  0.0000  0.0000  0.0000  0.0000  0.0000
  28   0.0000  0.0000  0.0000  0.0000  0.0000  0.0000  0.0000  0.0000  0.0000 -0.0002 -0.0419 -0.0002  0.0000  0.0000  0.0000
       0.0000  0.0000  0.0000  0.0000  0.0000  0.0000
  29   0.0000  0.0000  0.0000  0.0000  0.0000  0.0000  0.0000  0.0000  0.0000 -0.0001 -0.0137 -0.0001  0.0000  0.0000  0.0000
       0.0000  0.0000  0.0000  0.0000  0.0000  0.0000
  30   0.0000  0.0000  0.0000  0.0000  0.0000  0.0000  0.0000  0.0000  0.0000  0.0000 -0.0001  0.0000  0.0000  0.0000  0.0000
       0.0000  0.0000  0.0000  0.0000  0.0000  0.0000
  31   0.0000  0.0000  0.0000  0.0000  0.0000  0.0000  0.0000  0.0000  0.0000  0.0000  0.0000  0.0000  0.0000  0.0000  0.0000
       0.0000  0.0000  0.0000  0.0000  0.0000  0.0000
  32   0.0000  0.0000  0.0000  0.0000  0.0000  0.0000  0.0000  0.0000  0.0000  0.0000  0.0000  0.0000  0.0000  0.0000  0.0000
       0.0000  0.0000  0.0000  0.0000  0.0000  0.0000
  33   0.0000  0.0000  0.0000  0.0000  0.0000  0.0000  0.0000  0.0000  0.0000  0.0000  0.0000  0.0000  0.0000  0.0000  0.0000
       0.0000  0.0000  0.0000  0.0000  0.0000  0.0000
  34   0.0000  0.0000  0.0000  0.0000  0.0000  0.0000  0.0000  0.0000  0.0000  0.0000  0.0000  0.0000  0.0000  0.0000  0.0000
       0.0000  0.0000  0.0000  0.0000  0.0000  0.0000
  35   0.0000  0.0000  0.0000  0.0000  0.0000  0.0000  0.0000  0.0000  0.0000  0.0000  0.0000  0.0000  0.0000  0.0000  0.0000
       0.0000  0.0000  0.0000  0.0000  0.0000  0.0000
  36   0.0000  0.0000  0.0000  0.0000  0.0000  0.0000  0.0000  0.0000  0.0000  0.0000  0.0000  0.0000  0.0000  0.0000  0.0000
       0.0000  0.0000  0.0000  0.0000  0.0000  0.0000
  37   0.0000  0.0000  0.0000  0.0000  0.0000  0.0000  0.0000  0.0000  0.0000  0.0000  0.0000  0.0000  0.0000  0.0000  0.0000
       0.0000  0.0000  0.0000  0.0000  0.0000  0.0000
  38   0.0000  0.0000  0.0000  0.0000  0.0000  0.0000  0.0000  0.0000  0.0000  0.0000  0.0000  0.0000  0.0000  0.0000  0.0000
       0.0000  0.0000  0.0000  0.0000  0.0000  0.0000
  39   0.0000  0.0000  0.0000  0.0000  0.0000  0.0000  0.0000  0.0000  0.0000  0.0000  0.0000  0.0000  0.0000  0.0000  0.0000
       0.0000  0.0000  0.0000  0.0000  0.0000  0.0000
  40   0.0000  0.0000  0.0000  0.0000  0.0000  0.0000  0.0000  0.0000  0.0000  0.0000  0.0000  0.0000  0.0000  0.0000  0.0000
       0.0000  0.0000  0.0000  0.0000  0.0000  0.0000
  41   0.0000  0.0000  0.0000  0.0000  0.0000  0.0000  0.0000  0.0000  0.0000  0.0000  0.0000  0.0000  0.0000  0.0000  0.0000
       0.0000  0.0000  0.0000  0.0000  0.0000  0.0000
1
  VOLUMETRIC BUDGET FOR ENTIRE MODEL AT END OF TIME STEP  8 IN STRESS PERIOD   1
  ------------------------------------------------------------------------------

     CUMULATIVE VOLUMES      L**3       RATES FOR THIS TIME STEP      L**3/T
     ------------------                 ------------------------

           IN:                                      IN:
           ---                                      ---
             STORAGE =          16.9809               STORAGE =          78.2445
       CONSTANT HEAD =           0.0000         CONSTANT HEAD =           0.0000
               WELLS =       21001.0488                 WELLS =      126000.0000
              DAFLOW =     1615223.0000                DAFLOW =    24058870.0000

            TOTAL IN =     1636241.0000              TOTAL IN =    24184948.0000

          OUT:                                     OUT:
          ----                                     ----
             STORAGE =     1615309.5000               STORAGE =    24058962.0000
       CONSTANT HEAD =       21001.0527         CONSTANT HEAD =      126000.0156
               WELLS =           0.0000                 WELLS =           0.0000
              DAFLOW =       3.1480E-04                DAFLOW =       2.1293E-03

           TOTAL OUT =     1636310.5000             TOTAL OUT =    24184962.0000

            IN - OUT =         -69.5000              IN - OUT =         -14.0000

 PERCENT DISCREPANCY =           0.00     PERCENT DISCREPANCY =           0.00






          TIME SUMMARY AT END OF TIME STEP   8 IN STRESS PERIOD    1
                    SECONDS     MINUTES      HOURS       DAYS        YEARS
                    -----------------------------------------------------------
   TIME STEP LENGTH  1800.1      30.002     0.50003     2.08344E-02 5.70414E-05
 STRESS PERIOD TIME  14401.      240.01      4.0002     0.16667     4.56331E-04
         TOTAL TIME  14401.      240.01      4.0002     0.16667     4.56331E-04
1
  No of DAFLOW steps per MODFLOW step =            2
 
 SOLVING FOR HEAD 
Computed negative flow of    -0.105E-01 at   1 branch  3 node 24
Computed negative flow of    -0.939E-02 at   2 branch  3 node 28
Computed negative flow of    -0.545E-02 at   2 branch  3 node 28
Computed negative flow of    -0.101E-01 at   2 branch  3 node 28
Computed negative flow of    -0.164E-02 at   2 branch  3 node 28
Computed negative flow of    -0.667E-02 at   2 branch  3 node 28
     5 CALLS TO PCG ROUTINE FOR TIME STEP   9 IN STRESS PERIOD    1
     9 TOTAL ITERATIONS

 MAXIMUM HEAD CHANGE FOR EACH ITERATION (1 INDICATES THE FIRST INNER ITERATION):

    HEAD CHANGE    HEAD CHANGE    HEAD CHANGE    HEAD CHANGE    HEAD CHANGE 
   LAYER,ROW,COL  LAYER,ROW,COL  LAYER,ROW,COL  LAYER,ROW,COL  LAYER,ROW,COL
 ---------------------------------------------------------------------------
  1  0.3261      0  0.5477E-05  1  0.1649      0  0.2769E-05  1 -0.1952E-01
   (  1, 26, 11)  (  1, 27, 10)  (  1, 31, 11)  (  1, 32, 10)  (  1, 34, 11)
  0 -0.3273E-06  1  0.3013E-02  0  0.5053E-07  1 -0.2264E-03
   (  1, 35, 10)  (  1, 34, 11)  (  1, 35, 10)  (  1, 35, 11)

 MAXIMUM RESIDUAL FOR EACH ITERATION (1 INDICATES THE FIRST INNER ITERATION):

    RESIDUAL       RESIDUAL       RESIDUAL       RESIDUAL       RESIDUAL    
   LAYER,ROW,COL  LAYER,ROW,COL  LAYER,ROW,COL  LAYER,ROW,COL  LAYER,ROW,COL
 ---------------------------------------------------------------------------
  1  -14.91      0 -0.2231E-03  1  -6.713      0 -0.1127E-03  1  0.7964    
   (  1, 10, 12)  (  1, 28,  9)  (  1, 32, 10)  (  1, 33,  9)  (  1, 35, 10)
  0  0.1335E-04  1 -0.1229      0 -0.2061E-05  1  0.9263E-02
   (  1, 36,  9)  (  1, 35, 10)  (  1, 36,  9)  (  1, 36, 10)



 NO OUTPUT CONTROL FOR STRESS PERIOD    1   TIME STEP   9
 Day   1  Hour  4.12 Branch  node  Discharge
                          1    12     345.9    
                          3    32    0.2190    
 Day   1  Hour  4.38 Branch  node  Discharge
                          1    12     325.1    
                          3    32     0.000    
  No of DAFLOW steps per MODFLOW step =            2
 
 SOLVING FOR HEAD 
Computed negative flow of    -0.179E-01 at   1 branch  3 node 31
Computed negative flow of    -0.132E-01 at   1 branch  3 node 31
Computed negative flow of    -0.879E-02 at   1 branch  3 node 31
Computed negative flow of    -0.118E-01 at   1 branch  3 node 31
Computed negative flow of    -0.976E-02 at   1 branch  3 node 31
     5 CALLS TO PCG ROUTINE FOR TIME STEP  10 IN STRESS PERIOD    1
     9 TOTAL ITERATIONS

 MAXIMUM HEAD CHANGE FOR EACH ITERATION (1 INDICATES THE FIRST INNER ITERATION):

    HEAD CHANGE    HEAD CHANGE    HEAD CHANGE    HEAD CHANGE    HEAD CHANGE 
   LAYER,ROW,COL  LAYER,ROW,COL  LAYER,ROW,COL  LAYER,ROW,COL  LAYER,ROW,COL
 ---------------------------------------------------------------------------
  1  0.3126      0  0.5253E-05  1  0.1646      0  0.2764E-05  1 -0.1355E-01
   (  1, 33, 11)  (  1, 34, 10)  (  1, 38, 11)  (  1, 39, 10)  (  1, 39, 11)
  0 -0.2265E-06  1  0.2015E-02  0  0.3108E-07  1  0.1105E-03
   (  1, 40, 10)  (  1, 40, 11)  (  1, 39, 12)  (  1, 26, 11)

 MAXIMUM RESIDUAL FOR EACH ITERATION (1 INDICATES THE FIRST INNER ITERATION):

    RESIDUAL       RESIDUAL       RESIDUAL       RESIDUAL       RESIDUAL    
   LAYER,ROW,COL  LAYER,ROW,COL  LAYER,ROW,COL  LAYER,ROW,COL  LAYER,ROW,COL
 ---------------------------------------------------------------------------
  1  -12.73      0 -0.2140E-03  1  -6.700      0 -0.1125E-03  1  0.5518    
   (  1, 34, 10)  (  1, 35,  9)  (  1, 39, 10)  (  1, 40,  9)  (  1, 40, 10)
  0  0.8373E-05  1 -0.7561E-01  0 -0.1265E-05  1 -0.4493E-02
   (  1, 37, 13)  (  1, 39, 12)  (  1, 38, 13)  (  1, 27, 10)



 NO OUTPUT CONTROL FOR STRESS PERIOD    1   TIME STEP  10
 Day   1  Hour  4.62 Branch  node  Discharge
                          1    12     304.4    
                          3    32     0.000    
 Day   1  Hour  4.88 Branch  node  Discharge
                          1    12     265.0    
                          3    32     95.90    
  No of DAFLOW steps per MODFLOW step =            2
 
 SOLVING FOR HEAD 
     4 CALLS TO PCG ROUTINE FOR TIME STEP  11 IN STRESS PERIOD    1
     7 TOTAL ITERATIONS

 MAXIMUM HEAD CHANGE FOR EACH ITERATION (1 INDICATES THE FIRST INNER ITERATION):

    HEAD CHANGE    HEAD CHANGE    HEAD CHANGE    HEAD CHANGE    HEAD CHANGE 
   LAYER,ROW,COL  LAYER,ROW,COL  LAYER,ROW,COL  LAYER,ROW,COL  LAYER,ROW,COL
 ---------------------------------------------------------------------------
  1  0.2996      0  0.5014E-05  1  0.5456E-01  0  0.8212E-06  1  0.4688E-02
   (  1, 39, 11)  (  1, 40, 10)  (  1, 40, 11)  (  1, 39, 12)  (  1, 26, 11)
  0  0.7888E-07  1 -0.5964E-03
   (  1, 27, 10)  (  1, 33, 11)

 MAXIMUM RESIDUAL FOR EACH ITERATION (1 INDICATES THE FIRST INNER ITERATION):

    RESIDUAL       RESIDUAL       RESIDUAL       RESIDUAL       RESIDUAL    
   LAYER,ROW,COL  LAYER,ROW,COL  LAYER,ROW,COL  LAYER,ROW,COL  LAYER,ROW,COL
 ---------------------------------------------------------------------------
  1  -12.19      0 -0.1958E-03  1  -2.003      0  0.4129E-04  1 -0.1913    
   (  1, 40, 10)  (  1, 38,  9)  (  1, 39, 12)  (  1, 40, 11)  (  1, 27, 10)
  0 -0.4722E-05  1  0.2432E-01
   (  1,  8, 14)  (  1, 34, 10)



 OUTPUT CONTROL FOR STRESS PERIOD    1   TIME STEP  11
    PRINT BUDGET
 Day   1  Hour  5.12 Branch  node  Discharge
                          1    12     232.7    
                          3    32     320.1    
 Day   1  Hour  5.38 Branch  node  Discharge
                          1    12     205.8    
                          3    32     421.1    
1
  VOLUMETRIC BUDGET FOR ENTIRE MODEL AT END OF TIME STEP 11 IN STRESS PERIOD   1
  ------------------------------------------------------------------------------

     CUMULATIVE VOLUMES      L**3       RATES FOR THIS TIME STEP      L**3/T
     ------------------                 ------------------------

           IN:                                      IN:
           ---                                      ---
             STORAGE =        9958.8096               STORAGE =      474050.0625
       CONSTANT HEAD =           0.0000         CONSTANT HEAD =           0.0000
               WELLS =       28876.4414                 WELLS =      126000.0000
              DAFLOW =     2892964.7500                DAFLOW =    15747957.0000

            TOTAL IN =     2931800.0000              TOTAL IN =    16348007.0000

          OUT:                                     OUT:
          ----                                     ----
             STORAGE =     2900699.0000               STORAGE =    16113796.0000
       CONSTANT HEAD =       28991.6992         CONSTANT HEAD =      130356.3203
               WELLS =           0.0000                 WELLS =           0.0000
              DAFLOW =        2265.3945                DAFLOW =      108733.4844

           TOTAL OUT =     2931956.0000             TOTAL OUT =    16352886.0000

            IN - OUT =        -156.0000              IN - OUT =       -4879.0000

 PERCENT DISCREPANCY =          -0.01     PERCENT DISCREPANCY =          -0.03






          TIME SUMMARY AT END OF TIME STEP  11 IN STRESS PERIOD    1
                    SECONDS     MINUTES      HOURS       DAYS        YEARS
                    -----------------------------------------------------------
   TIME STEP LENGTH  1800.1      30.002     0.50003     2.08344E-02 5.70414E-05
 STRESS PERIOD TIME  19801.      330.02      5.5003     0.22918     6.27455E-04
         TOTAL TIME  19801.      330.02      5.5003     0.22918     6.27455E-04
1
  No of DAFLOW steps per MODFLOW step =            2
 
 SOLVING FOR HEAD 
     4 CALLS TO PCG ROUTINE FOR TIME STEP  12 IN STRESS PERIOD    1
     7 TOTAL ITERATIONS

 MAXIMUM HEAD CHANGE FOR EACH ITERATION (1 INDICATES THE FIRST INNER ITERATION):

    HEAD CHANGE    HEAD CHANGE    HEAD CHANGE    HEAD CHANGE    HEAD CHANGE 
   LAYER,ROW,COL  LAYER,ROW,COL  LAYER,ROW,COL  LAYER,ROW,COL  LAYER,ROW,COL
 ---------------------------------------------------------------------------
  1  0.2533      0  0.3967E-05  1 -0.2228E-01  0 -0.3963E-06  1  0.4142E-02
   (  1, 40, 11)  (  1, 40, 10)  (  1, 11, 11)  (  1,  9, 13)  (  1, 37, 11)
  0  0.6962E-07  1 -0.5031E-03
   (  1, 38, 10)  (  1, 37, 11)

 MAXIMUM RESIDUAL FOR EACH ITERATION (1 INDICATES THE FIRST INNER ITERATION):

    RESIDUAL       RESIDUAL       RESIDUAL       RESIDUAL       RESIDUAL    
   LAYER,ROW,COL  LAYER,ROW,COL  LAYER,ROW,COL  LAYER,ROW,COL  LAYER,ROW,COL
 ---------------------------------------------------------------------------
  1  -9.645      0  0.1620E-03  1   1.062      0  0.1882E-04  1 -0.1687    
   (  1, 40, 10)  (  1, 40, 11)  (  1,  9, 13)  (  1,  9, 13)  (  1, 38, 10)
  0 -0.2834E-05  1  0.2048E-01
   (  1, 39,  9)  (  1, 38, 10)



 OUTPUT CONTROL FOR STRESS PERIOD    1   TIME STEP  12
    PRINT DRAWDOWN FOR ALL LAYERS
    PRINT BUDGET
 Day   1  Hour  5.62 Branch  node  Discharge
                          1    12     185.0    
                          3    32     440.4    
 Day   1  Hour  5.88 Branch  node  Discharge
                          1    12     165.2    
                          3    32     431.8    
1
          DRAWDOWN IN LAYER   1 AT END OF TIME STEP  12 IN STRESS PERIOD    1
  ---------------------------------------------------------------------------

           1       2       3       4       5       6       7       8       9      10      11      12      13      14      15
          16      17      18      19      20      21
 ...........................................................................................................................
   1  -1.3324 -0.0788 -0.0026 -0.0001  0.0000  0.0000  0.0000  0.0000  0.0000  0.0000  0.0000  0.0000  0.0000  0.0000  0.0000
       0.0000  0.0000 -0.0001 -0.0026 -0.0788 -1.3324
   2  -0.0788 -1.3077 -0.0736 -0.0024 -0.0001  0.0000  0.0000  0.0000  0.0000  0.0000  0.0000  0.0000  0.0000  0.0000  0.0000
       0.0000 -0.0001 -0.0024 -0.0736 -1.3077 -0.0788
   3  -0.0026 -0.0736 -1.2999 -0.0711 -0.0023 -0.0001  0.0000  0.0000  0.0000  0.0000  0.0000  0.0000  0.0000  0.0000  0.0000
      -0.0001 -0.0023 -0.0711 -1.2999 -0.0736 -0.0026
   4  -0.0001 -0.0024 -0.0711 -1.2853 -0.0680 -0.0021 -0.0001  0.0000  0.0000  0.0000  0.0000  0.0000  0.0000  0.0000 -0.0001
      -0.0021 -0.0680 -1.2853 -0.0711 -0.0024 -0.0001
   5   0.0000 -0.0001 -0.0023 -0.0680 -1.2728 -0.0646 -0.0019  0.0000  0.0000  0.0000  0.0000  0.0000  0.0000  0.0000 -0.0019
      -0.0646 -1.2728 -0.0680 -0.0023 -0.0001  0.0000
   6   0.0000  0.0000 -0.0001 -0.0021 -0.0646 -1.2763 -0.0605 -0.0017  0.0000  0.0000  0.0000  0.0000  0.0000 -0.0017 -0.0605
      -1.2763 -0.0646 -0.0021 -0.0001  0.0000  0.0000
   7   0.0000  0.0000  0.0000 -0.0001 -0.0019 -0.0605 -1.2619 -0.0568 -0.0016  0.0000  0.0000  0.0000 -0.0016 -0.0568 -1.2619
      -0.0605 -0.0019 -0.0001  0.0000  0.0000  0.0000
   8   0.0000  0.0000  0.0000  0.0000  0.0000 -0.0017 -0.0568 -1.2441 -0.0545 -0.0015 -0.0001 -0.0015 -0.0545 -1.2441 -0.0568
      -0.0017  0.0000  0.0000  0.0000  0.0000  0.0000
   9   0.0000  0.0000  0.0000  0.0000  0.0000  0.0000 -0.0016 -0.0545 -1.2392 -0.0521 -0.0025 -0.0521 -1.2392 -0.0545 -0.0016
       0.0000  0.0000  0.0000  0.0000  0.0000  0.0000
  10   0.0000  0.0000  0.0000  0.0000  0.0000  0.0000  0.0000 -0.0015 -0.0520 -1.2255 -0.0813 -1.2255 -0.0520 -0.0015  0.0000
       0.0000  0.0000  0.0000  0.0000  0.0000  0.0000
  11   0.0000  0.0000  0.0000  0.0000  0.0000  0.0000  0.0000  0.0000 -0.0015 -0.0563 -1.4356 -0.0563 -0.0015  0.0000  0.0000
       0.0000  0.0000  0.0000  0.0000  0.0000  0.0000
  12   0.0000  0.0000  0.0000  0.0000  0.0000  0.0000  0.0000  0.0000 -0.0004 -0.0271 -1.3572 -0.0271 -0.0004  0.0000  0.0000
       0.0000  0.0000  0.0000  0.0000  0.0000  0.0000
  13   0.0000  0.0000  0.0000  0.0000  0.0000  0.0000  0.0000  0.0000 -0.0003 -0.0252 -1.3326 -0.0252 -0.0003  0.0000  0.0000
       0.0000  0.0000  0.0000  0.0000  0.0000  0.0000
  14   0.0000  0.0000  0.0000  0.0000  0.0000  0.0000  0.0000  0.0000 -0.0003 -0.0240 -1.3215 -0.0240 -0.0003  0.0000  0.0000
       0.0000  0.0000  0.0000  0.0000  0.0000  0.0000
  15   0.0000  0.0000  0.0000  0.0000  0.0000  0.0000  0.0000  0.0000 -0.0003 -0.0235 -1.3136 -0.0235 -0.0003  0.0000  0.0000
       0.0000  0.0000  0.0000  0.0000  0.0000  0.0000
  16   0.0000  0.0000  0.0000  0.0000  0.0000  0.0000  0.0000  0.0000 -0.0003 -0.0230 -1.3014 -0.0230 -0.0003  0.0000  0.0000
       0.0000  0.0000  0.0000  0.0000  0.0000  0.0000
  17   0.0000  0.0000  0.0000  0.0000  0.0000  0.0000  0.0000  0.0000 -0.0003 -0.0227 -1.2935 -0.0227 -0.0003  0.0000  0.0000
       0.0000  0.0000  0.0000  0.0000  0.0000  0.0000
  18   0.0000  0.0000  0.0000  0.0000  0.0000  0.0000  0.0000  0.0000 -0.0002 -0.0212 -1.2551 -0.0212 -0.0002  0.0000  0.0000
       0.0000  0.0000  0.0000  0.0000  0.0000  0.0000
  19   0.0000  0.0000  0.0000  0.0000  0.0000  0.0000  0.0000  0.0000 -0.0002 -0.0206 -1.2444 -0.0206 -0.0002  0.0000  0.0000
       0.0000  0.0000  0.0000  0.0000  0.0000  0.0000
  20   0.0000  0.0000  0.0000  0.0000  0.0000  0.0000  0.0000  0.0000 -0.0002 -0.0191 -1.2315 -0.0191 -0.0002  0.0000  0.0000
       0.0000  0.0000  0.0000  0.0000  0.0000  0.0000
  21   0.0000  0.0000  0.0000  0.0000  0.0000  0.0000  0.0000  0.0000 -0.0002 -0.0178 -1.2064 -0.0179 -0.0002  0.0000  0.0000
       0.0000  0.0000  0.0000  0.0000  0.0000  0.0000
  22   0.0000  0.0000  0.0000  0.0000  0.0000  0.0000  0.0000  0.0000 -0.0002 -0.0172 -1.1918 -0.0172 -0.0002  0.0000  0.0000
       0.0000  0.0000  0.0000  0.0000  0.0000  0.0000
  23   0.0000  0.0000  0.0000  0.0000  0.0000  0.0000  0.0000  0.0000 -0.0002 -0.0170 -1.1818 -0.0170 -0.0002  0.0000  0.0000
       0.0000  0.0000  0.0000  0.0000  0.0000  0.0000
  24   0.0000  0.0000  0.0000  0.0000  0.0000  0.0000  0.0000  0.0000 -0.0002 -0.0167 -1.1657 -0.0167 -0.0002  0.0000  0.0000
       0.0000  0.0000  0.0000  0.0000  0.0000  0.0000
  25   0.0000  0.0000  0.0000  0.0000  0.0000  0.0000  0.0000  0.0000 -0.0002 -0.0153 -1.1280 -0.0153 -0.0002  0.0000  0.0000
       0.0000  0.0000  0.0000  0.0000  0.0000  0.0000
  26   0.0000  0.0000  0.0000  0.0000  0.0000  0.0000  0.0000  0.0000 -0.0001 -0.0148 -1.1206 -0.0148 -0.0001  0.0000  0.0000
       0.0000  0.0000  0.0000  0.0000  0.0000  0.0000
  27   0.0000  0.0000  0.0000  0.0000  0.0000  0.0000  0.0000  0.0000 -0.0001 -0.0135 -1.0914 -0.0135 -0.0001  0.0000  0.0000
       0.0000  0.0000  0.0000  0.0000  0.0000  0.0000
  28   0.0000  0.0000  0.0000  0.0000  0.0000  0.0000  0.0000  0.0000 -0.0001 -0.0124 -1.0473 -0.0124 -0.0001  0.0000  0.0000
       0.0000  0.0000  0.0000  0.0000  0.0000  0.0000
  29   0.0000  0.0000  0.0000  0.0000  0.0000  0.0000  0.0000  0.0000 -0.0001 -0.0118 -1.0283 -0.0118 -0.0001  0.0000  0.0000
       0.0000  0.0000  0.0000  0.0000  0.0000  0.0000
  30   0.0000  0.0000  0.0000  0.0000  0.0000  0.0000  0.0000  0.0000 -0.0001 -0.0115 -1.0133 -0.0115 -0.0001  0.0000  0.0000
       0.0000  0.0000  0.0000  0.0000  0.0000  0.0000
  31   0.0000  0.0000  0.0000  0.0000  0.0000  0.0000  0.0000  0.0000 -0.0001 -0.0113 -0.9967 -0.0113 -0.0001  0.0000  0.0000
       0.0000  0.0000  0.0000  0.0000  0.0000  0.0000
  32   0.0000  0.0000  0.0000  0.0000  0.0000  0.0000  0.0000  0.0000 -0.0001 -0.0103 -0.9653 -0.0103 -0.0001  0.0000  0.0000
       0.0000  0.0000  0.0000  0.0000  0.0000  0.0000
  33   0.0000  0.0000  0.0000  0.0000  0.0000  0.0000  0.0000  0.0000 -0.0001 -0.0097 -0.9451 -0.0097 -0.0001  0.0000  0.0000
       0.0000  0.0000  0.0000  0.0000  0.0000  0.0000
  34   0.0000  0.0000  0.0000  0.0000  0.0000  0.0000  0.0000  0.0000 -0.0001 -0.0085 -0.8900 -0.0085 -0.0001  0.0000  0.0000
       0.0000  0.0000  0.0000  0.0000  0.0000  0.0000
  35   0.0000  0.0000  0.0000  0.0000  0.0000  0.0000  0.0000  0.0000 -0.0001 -0.0077 -0.8468 -0.0077 -0.0001  0.0000  0.0000
       0.0000  0.0000  0.0000  0.0000  0.0000  0.0000
  36   0.0000  0.0000  0.0000  0.0000  0.0000  0.0000  0.0000  0.0000 -0.0001 -0.0072 -0.8231 -0.0072 -0.0001  0.0000  0.0000
       0.0000  0.0000  0.0000  0.0000  0.0000  0.0000
  37   0.0000  0.0000  0.0000  0.0000  0.0000  0.0000  0.0000  0.0000  0.0000 -0.0070 -0.8028 -0.0070  0.0000  0.0000  0.0000
       0.0000  0.0000  0.0000  0.0000  0.0000  0.0000
  38   0.0000  0.0000  0.0000  0.0000  0.0000  0.0000  0.0000  0.0000  0.0000 -0.0069 -0.8039 -0.0069  0.0000  0.0000  0.0000
       0.0000  0.0000  0.0000  0.0000  0.0000  0.0000
  39   0.0000  0.0000  0.0000  0.0000  0.0000  0.0000  0.0000  0.0000  0.0000 -0.0059 -0.7400 -0.0059  0.0000  0.0000  0.0000
       0.0000  0.0000  0.0000  0.0000  0.0000  0.0000
  40   0.0000  0.0000  0.0000  0.0000  0.0000  0.0000  0.0000  0.0000  0.0000 -0.0050 -0.6830 -0.0050  0.0000  0.0000  0.0000
       0.0000  0.0000  0.0000  0.0000  0.0000  0.0000
  41   0.0000  0.0000  0.0000  0.0000  0.0000  0.0000  0.0000  0.0000  0.0000  0.0000  0.0000  0.0000  0.0000  0.0000  0.0000
       0.0000  0.0000  0.0000  0.0000  0.0000  0.0000
1
  VOLUMETRIC BUDGET FOR ENTIRE MODEL AT END OF TIME STEP 12 IN STRESS PERIOD   1
  ------------------------------------------------------------------------------

     CUMULATIVE VOLUMES      L**3       RATES FOR THIS TIME STEP      L**3/T
     ------------------                 ------------------------

           IN:                                      IN:
           ---                                      ---
             STORAGE =       35384.3359               STORAGE =     1220364.1250
       CONSTANT HEAD =           0.0000         CONSTANT HEAD =           0.0000
               WELLS =       31501.5723                 WELLS =      126000.0000
              DAFLOW =     3099640.5000                DAFLOW =     9919936.0000

            TOTAL IN =     3166526.5000              TOTAL IN =    11266300.0000

          OUT:                                     OUT:
          ----                                     ----
             STORAGE =     3120950.2500               STORAGE =    10571530.0000
       CONSTANT HEAD =       31761.2441         CONSTANT HEAD =      132931.4688
               WELLS =           0.0000                 WELLS =           0.0000
              DAFLOW =       14046.0195                DAFLOW =      565441.7500

           TOTAL OUT =     3166757.5000             TOTAL OUT =    11269903.0000

            IN - OUT =        -231.0000              IN - OUT =       -3603.0000

 PERCENT DISCREPANCY =          -0.01     PERCENT DISCREPANCY =          -0.03






          TIME SUMMARY AT END OF TIME STEP  12 IN STRESS PERIOD    1
                    SECONDS     MINUTES      HOURS       DAYS        YEARS
                    -----------------------------------------------------------
   TIME STEP LENGTH  1800.1      30.002     0.50003     2.08344E-02 5.70414E-05
 STRESS PERIOD TIME  21601.      360.02      6.0003     0.25001     6.84497E-04
         TOTAL TIME  21601.      360.02      6.0003     0.25001     6.84497E-04
1
  No of DAFLOW steps per MODFLOW step =            2
 
 SOLVING FOR HEAD 
     4 CALLS TO PCG ROUTINE FOR TIME STEP  13 IN STRESS PERIOD    1
     7 TOTAL ITERATIONS

 MAXIMUM HEAD CHANGE FOR EACH ITERATION (1 INDICATES THE FIRST INNER ITERATION):

    HEAD CHANGE    HEAD CHANGE    HEAD CHANGE    HEAD CHANGE    HEAD CHANGE 
   LAYER,ROW,COL  LAYER,ROW,COL  LAYER,ROW,COL  LAYER,ROW,COL  LAYER,ROW,COL
 ---------------------------------------------------------------------------
  1  0.1843      0  0.2954E-05  1 -0.1793E-01  0 -0.3840E-06  1  0.3110E-02
   (  1, 40, 11)  (  1, 40, 10)  (  1, 11, 11)  (  1, 10, 12)  (  1, 40, 11)
  0  0.4723E-07  1 -0.3748E-03
   (  1, 40, 10)  (  1, 40, 11)

 MAXIMUM RESIDUAL FOR EACH ITERATION (1 INDICATES THE FIRST INNER ITERATION):

    RESIDUAL       RESIDUAL       RESIDUAL       RESIDUAL       RESIDUAL    
   LAYER,ROW,COL  LAYER,ROW,COL  LAYER,ROW,COL  LAYER,ROW,COL  LAYER,ROW,COL
 ---------------------------------------------------------------------------
  1  -7.184      0  0.1234E-03  1   1.022      0 -0.1466E-04  1 -0.1209    
   (  1, 40, 10)  (  1, 40, 11)  (  1, 10, 12)  (  1, 40, 11)  (  1, 10, 12)
  0  0.2234E-05  1  0.1418E-01
   (  1, 40, 11)  (  1, 10, 12)



 NO OUTPUT CONTROL FOR STRESS PERIOD    1   TIME STEP  13
 Day   1  Hour  6.12 Branch  node  Discharge
                          1    12     148.4    
                          3    32     413.3    
 Day   1  Hour  6.38 Branch  node  Discharge
                          1    12     133.4    
                          3    32     387.7    
  No of DAFLOW steps per MODFLOW step =            2
 
 SOLVING FOR HEAD 
     4 CALLS TO PCG ROUTINE FOR TIME STEP  14 IN STRESS PERIOD    1
     7 TOTAL ITERATIONS

 MAXIMUM HEAD CHANGE FOR EACH ITERATION (1 INDICATES THE FIRST INNER ITERATION):

    HEAD CHANGE    HEAD CHANGE    HEAD CHANGE    HEAD CHANGE    HEAD CHANGE 
   LAYER,ROW,COL  LAYER,ROW,COL  LAYER,ROW,COL  LAYER,ROW,COL  LAYER,ROW,COL
 ---------------------------------------------------------------------------
  1  0.1196      0  0.1877E-05  1 -0.1419E-01  0 -0.3125E-06  1  0.2251E-02
   (  1, 40, 11)  (  1, 40, 10)  (  1, 11, 11)  (  1, 10, 12)  (  1, 40, 11)
  0  0.3429E-07  1 -0.2622E-03
   (  1, 40, 10)  (  1, 40, 11)

 MAXIMUM RESIDUAL FOR EACH ITERATION (1 INDICATES THE FIRST INNER ITERATION):

    RESIDUAL       RESIDUAL       RESIDUAL       RESIDUAL       RESIDUAL    
   LAYER,ROW,COL  LAYER,ROW,COL  LAYER,ROW,COL  LAYER,ROW,COL  LAYER,ROW,COL
 ---------------------------------------------------------------------------
  1  -4.568      0  0.9135E-04  1  0.8303      0 -0.1132E-04  1 -0.8337E-01
   (  1, 40, 10)  (  1, 40, 11)  (  1, 10, 12)  (  1, 40, 11)  (  1, 40, 10)
  0  0.1514E-05  1  0.9900E-02
   (  1, 40, 11)  (  1, 40, 10)



 NO OUTPUT CONTROL FOR STRESS PERIOD    1   TIME STEP  14
 Day   1  Hour  6.62 Branch  node  Discharge
                          1    12     122.1    
                          3    32     358.6    
 Day   1  Hour  6.88 Branch  node  Discharge
                          1    12     107.4    
                          3    32     334.1    
  No of DAFLOW steps per MODFLOW step =            2
 
 SOLVING FOR HEAD 
     4 CALLS TO PCG ROUTINE FOR TIME STEP  15 IN STRESS PERIOD    1
     7 TOTAL ITERATIONS

 MAXIMUM HEAD CHANGE FOR EACH ITERATION (1 INDICATES THE FIRST INNER ITERATION):

    HEAD CHANGE    HEAD CHANGE    HEAD CHANGE    HEAD CHANGE    HEAD CHANGE 
   LAYER,ROW,COL  LAYER,ROW,COL  LAYER,ROW,COL  LAYER,ROW,COL  LAYER,ROW,COL
 ---------------------------------------------------------------------------
  1  0.8006E-01  0 -0.1214E-05  1 -0.1110E-01  0 -0.2046E-06  1  0.1285E-02
   (  1, 40, 11)  (  1,  1,  1)  (  1, 36, 11)  (  1,  4, 18)  (  1, 38, 11)
  0  0.2159E-07  1 -0.1582E-03
   (  1, 39, 10)  (  1, 40, 11)

 MAXIMUM RESIDUAL FOR EACH ITERATION (1 INDICATES THE FIRST INNER ITERATION):

    RESIDUAL       RESIDUAL       RESIDUAL       RESIDUAL       RESIDUAL    
   LAYER,ROW,COL  LAYER,ROW,COL  LAYER,ROW,COL  LAYER,ROW,COL  LAYER,ROW,COL
 ---------------------------------------------------------------------------
  1   3.211      0  0.7275E-04  1  0.5430      0  0.7567E-05  1 -0.5227E-01
   (  1,  1,  1)  (  1, 40, 11)  (  1,  4, 18)  (  1, 38,  9)  (  1, 39, 10)
  0  0.9157E-06  1  0.7074E-02
   (  1, 40, 11)  (  1, 10, 12)



 NO OUTPUT CONTROL FOR STRESS PERIOD    1   TIME STEP  15
 Day   1  Hour  7.12 Branch  node  Discharge
                          1    12     96.48    
                          3    32     312.5    
 Day   1  Hour  7.38 Branch  node  Discharge
                          1    12     87.83    
                          3    32     292.7    
  No of DAFLOW steps per MODFLOW step =            2
 
 SOLVING FOR HEAD 
     5 CALLS TO PCG ROUTINE FOR TIME STEP  16 IN STRESS PERIOD    1
     9 TOTAL ITERATIONS

 MAXIMUM HEAD CHANGE FOR EACH ITERATION (1 INDICATES THE FIRST INNER ITERATION):

    HEAD CHANGE    HEAD CHANGE    HEAD CHANGE    HEAD CHANGE    HEAD CHANGE 
   LAYER,ROW,COL  LAYER,ROW,COL  LAYER,ROW,COL  LAYER,ROW,COL  LAYER,ROW,COL
 ---------------------------------------------------------------------------
  1 -0.6822E-01  0 -0.1203E-05  1 -0.1014E-01  0 -0.2241E-06  1  0.3449E-02
   (  1,  1, 21)  (  1,  1,  1)  (  1, 11, 11)  (  1,  1,  1)  (  1, 38, 11)
  0  0.5794E-07  1 -0.2387E-02  0 -0.4004E-07  1  0.3028E-04
   (  1, 39, 10)  (  1, 32, 11)  (  1, 33, 10)  (  1, 40, 11)

 MAXIMUM RESIDUAL FOR EACH ITERATION (1 INDICATES THE FIRST INNER ITERATION):

    RESIDUAL       RESIDUAL       RESIDUAL       RESIDUAL       RESIDUAL    
   LAYER,ROW,COL  LAYER,ROW,COL  LAYER,ROW,COL  LAYER,ROW,COL  LAYER,ROW,COL
 ---------------------------------------------------------------------------
  1   3.170      0  0.5503E-04  1  0.5890      0  0.6919E-05  1 -0.1407    
   (  1,  1,  1)  (  1, 40, 11)  (  1,  1,  1)  (  1, 13,  9)  (  1, 39, 10)
  0 -0.2364E-05  1  0.9775E-01  0  0.1639E-05  1 -0.1120E-02
   (  1, 40,  9)  (  1, 33, 10)  (  1, 34,  9)  (  1, 39, 12)



 OUTPUT CONTROL FOR STRESS PERIOD    1   TIME STEP  16
    PRINT DRAWDOWN FOR ALL LAYERS
    PRINT BUDGET
 Day   1  Hour  7.62 Branch  node  Discharge
                          1    12     80.80    
                          3    32     276.8    
 Day   1  Hour  7.88 Branch  node  Discharge
                          1    12     74.01    
                          3    32     258.3    
1
          DRAWDOWN IN LAYER   1 AT END OF TIME STEP  16 IN STRESS PERIOD    1
  ---------------------------------------------------------------------------

           1       2       3       4       5       6       7       8       9      10      11      12      13      14      15
          16      17      18      19      20      21
 ...........................................................................................................................
   1  -1.0525 -0.1123 -0.0057 -0.0002  0.0000  0.0000  0.0000  0.0000  0.0000  0.0000  0.0000  0.0000  0.0000  0.0000  0.0000
       0.0000  0.0000 -0.0002 -0.0057 -0.1123 -1.0525
   2  -0.1123 -1.0396 -0.1056 -0.0053 -0.0002  0.0000  0.0000  0.0000  0.0000  0.0000  0.0000  0.0000  0.0000  0.0000  0.0000
       0.0000 -0.0002 -0.0053 -0.1056 -1.0396 -0.1123
   3  -0.0057 -0.1056 -1.0423 -0.1033 -0.0050 -0.0002  0.0000  0.0000  0.0000  0.0000  0.0000  0.0000  0.0000  0.0000  0.0000
      -0.0002 -0.0050 -0.1033 -1.0423 -0.1056 -0.0057
   4  -0.0002 -0.0053 -0.1033 -1.0586 -0.1006 -0.0048 -0.0002  0.0000  0.0000  0.0000  0.0000  0.0000  0.0000  0.0000 -0.0002
      -0.0048 -0.1006 -1.0586 -0.1033 -0.0053 -0.0002
   5   0.0000 -0.0002 -0.0050 -0.1006 -1.0743 -0.0976 -0.0045 -0.0002  0.0000  0.0000  0.0000  0.0000  0.0000 -0.0002 -0.0045
      -0.0976 -1.0743 -0.1006 -0.0050 -0.0002  0.0000
   6   0.0000  0.0000 -0.0002 -0.0048 -0.0976 -1.0795 -0.0938 -0.0042 -0.0001  0.0000  0.0000  0.0000 -0.0001 -0.0042 -0.0938
      -1.0795 -0.0976 -0.0048 -0.0002  0.0000  0.0000
   7   0.0000  0.0000  0.0000 -0.0002 -0.0045 -0.0938 -1.0871 -0.0904 -0.0040 -0.0001  0.0000 -0.0001 -0.0040 -0.0904 -1.0871
      -0.0938 -0.0045 -0.0002  0.0000  0.0000  0.0000
   8   0.0000  0.0000  0.0000  0.0000 -0.0001 -0.0042 -0.0904 -1.0950 -0.0883 -0.0038 -0.0002 -0.0038 -0.0883 -1.0950 -0.0904
      -0.0042 -0.0001  0.0000  0.0000  0.0000  0.0000
   9   0.0000  0.0000  0.0000  0.0000  0.0000 -0.0001 -0.0040 -0.0883 -1.1022 -0.0861 -0.0066 -0.0861 -1.1022 -0.0883 -0.0040
      -0.0001  0.0000  0.0000  0.0000  0.0000  0.0000
  10   0.0000  0.0000  0.0000  0.0000  0.0000  0.0000 -0.0001 -0.0038 -0.0861 -1.1068 -0.1339 -1.1068 -0.0861 -0.0038 -0.0001
       0.0000  0.0000  0.0000  0.0000  0.0000  0.0000
  11   0.0000  0.0000  0.0000  0.0000  0.0000  0.0000  0.0000 -0.0001 -0.0039 -0.0926 -1.1902 -0.0926 -0.0039 -0.0001  0.0000
       0.0000  0.0000  0.0000  0.0000  0.0000  0.0000
  12   0.0000  0.0000  0.0000  0.0000  0.0000  0.0000  0.0000  0.0000 -0.0010 -0.0481 -1.2473 -0.0481 -0.0010  0.0000  0.0000
       0.0000  0.0000  0.0000  0.0000  0.0000  0.0000
  13   0.0000  0.0000  0.0000  0.0000  0.0000  0.0000  0.0000  0.0000 -0.0009 -0.0456 -1.2463 -0.0456 -0.0009  0.0000  0.0000
       0.0000  0.0000  0.0000  0.0000  0.0000  0.0000
  14   0.0000  0.0000  0.0000  0.0000  0.0000  0.0000  0.0000  0.0000 -0.0009 -0.0444 -1.2490 -0.0444 -0.0009  0.0000  0.0000
       0.0000  0.0000  0.0000  0.0000  0.0000  0.0000
  15   0.0000  0.0000  0.0000  0.0000  0.0000  0.0000  0.0000  0.0000 -0.0009 -0.0438 -1.2458 -0.0438 -0.0009  0.0000  0.0000
       0.0000  0.0000  0.0000  0.0000  0.0000  0.0000
  16   0.0000  0.0000  0.0000  0.0000  0.0000  0.0000  0.0000  0.0000 -0.0009 -0.0432 -1.2412 -0.0432 -0.0009  0.0000  0.0000
       0.0000  0.0000  0.0000  0.0000  0.0000  0.0000
  17   0.0000  0.0000  0.0000  0.0000  0.0000  0.0000  0.0000  0.0000 -0.0008 -0.0429 -1.2398 -0.0429 -0.0008  0.0000  0.0000
       0.0000  0.0000  0.0000  0.0000  0.0000  0.0000
  18   0.0000  0.0000  0.0000  0.0000  0.0000  0.0000  0.0000  0.0000 -0.0008 -0.0412 -1.2387 -0.0412 -0.0008  0.0000  0.0000
       0.0000  0.0000  0.0000  0.0000  0.0000  0.0000
  19   0.0000  0.0000  0.0000  0.0000  0.0000  0.0000  0.0000  0.0000 -0.0008 -0.0406 -1.2472 -0.0406 -0.0008  0.0000  0.0000
       0.0000  0.0000  0.0000  0.0000  0.0000  0.0000
  20   0.0000  0.0000  0.0000  0.0000  0.0000  0.0000  0.0000  0.0000 -0.0007 -0.0391 -1.2429 -0.0391 -0.0007  0.0000  0.0000
       0.0000  0.0000  0.0000  0.0000  0.0000  0.0000
  21   0.0000  0.0000  0.0000  0.0000  0.0000  0.0000  0.0000  0.0000 -0.0007 -0.0377 -1.2315 -0.0377 -0.0007  0.0000  0.0000
       0.0000  0.0000  0.0000  0.0000  0.0000  0.0000
  22   0.0000  0.0000  0.0000  0.0000  0.0000  0.0000  0.0000  0.0000 -0.0007 -0.0369 -1.2259 -0.0369 -0.0007  0.0000  0.0000
       0.0000  0.0000  0.0000  0.0000  0.0000  0.0000
  23   0.0000  0.0000  0.0000  0.0000  0.0000  0.0000  0.0000  0.0000 -0.0007 -0.0367 -1.2313 -0.0367 -0.0007  0.0000  0.0000
       0.0000  0.0000  0.0000  0.0000  0.0000  0.0000
  24   0.0000  0.0000  0.0000  0.0000  0.0000  0.0000  0.0000  0.0000 -0.0006 -0.0363 -1.2347 -0.0363 -0.0006  0.0000  0.0000
       0.0000  0.0000  0.0000  0.0000  0.0000  0.0000
  25   0.0000  0.0000  0.0000  0.0000  0.0000  0.0000  0.0000  0.0000 -0.0006 -0.0348 -1.2266 -0.0348 -0.0006  0.0000  0.0000
       0.0000  0.0000  0.0000  0.0000  0.0000  0.0000
  26   0.0000  0.0000  0.0000  0.0000  0.0000  0.0000  0.0000  0.0000 -0.0006 -0.0342 -1.2229 -0.0342 -0.0006  0.0000  0.0000
       0.0000  0.0000  0.0000  0.0000  0.0000  0.0000
  27   0.0000  0.0000  0.0000  0.0000  0.0000  0.0000  0.0000  0.0000 -0.0005 -0.0327 -1.2103 -0.0327 -0.0005  0.0000  0.0000
       0.0000  0.0000  0.0000  0.0000  0.0000  0.0000
  28   0.0000  0.0000  0.0000  0.0000  0.0000  0.0000  0.0000  0.0000 -0.0005 -0.0312 -1.1990 -0.0312 -0.0005  0.0000  0.0000
       0.0000  0.0000  0.0000  0.0000  0.0000  0.0000
  29   0.0000  0.0000  0.0000  0.0000  0.0000  0.0000  0.0000  0.0000 -0.0005 -0.0305 -1.1985 -0.0305 -0.0005  0.0000  0.0000
       0.0000  0.0000  0.0000  0.0000  0.0000  0.0000
  30   0.0000  0.0000  0.0000  0.0000  0.0000  0.0000  0.0000  0.0000 -0.0005 -0.0301 -1.1977 -0.0301 -0.0005  0.0000  0.0000
       0.0000  0.0000  0.0000  0.0000  0.0000  0.0000
  31   0.0000  0.0000  0.0000  0.0000  0.0000  0.0000  0.0000  0.0000 -0.0005 -0.0298 -1.1929 -0.0298 -0.0005  0.0000  0.0000
       0.0000  0.0000  0.0000  0.0000  0.0000  0.0000
  32   0.0000  0.0000  0.0000  0.0000  0.0000  0.0000  0.0000  0.0000 -0.0004 -0.0287 -1.1811 -0.0287 -0.0004  0.0000  0.0000
       0.0000  0.0000  0.0000  0.0000  0.0000  0.0000
  33   0.0000  0.0000  0.0000  0.0000  0.0000  0.0000  0.0000  0.0000 -0.0004 -0.0279 -1.1793 -0.0279 -0.0004  0.0000  0.0000
       0.0000  0.0000  0.0000  0.0000  0.0000  0.0000
  34   0.0000  0.0000  0.0000  0.0000  0.0000  0.0000  0.0000  0.0000 -0.0004 -0.0262 -1.1583 -0.0262 -0.0004  0.0000  0.0000
       0.0000  0.0000  0.0000  0.0000  0.0000  0.0000
  35   0.0000  0.0000  0.0000  0.0000  0.0000  0.0000  0.0000  0.0000 -0.0004 -0.0250 -1.1452 -0.0250 -0.0004  0.0000  0.0000
       0.0000  0.0000  0.0000  0.0000  0.0000  0.0000
  36   0.0000  0.0000  0.0000  0.0000  0.0000  0.0000  0.0000  0.0000 -0.0003 -0.0244 -1.1379 -0.0244 -0.0003  0.0000  0.0000
       0.0000  0.0000  0.0000  0.0000  0.0000  0.0000
  37   0.0000  0.0000  0.0000  0.0000  0.0000  0.0000  0.0000  0.0000 -0.0003 -0.0240 -1.1292 -0.0240 -0.0003  0.0000  0.0000
       0.0000  0.0000  0.0000  0.0000  0.0000  0.0000
  38   0.0000  0.0000  0.0000  0.0000  0.0000  0.0000  0.0000  0.0000 -0.0003 -0.0240 -1.1375 -0.0240 -0.0003  0.0000  0.0000
       0.0000  0.0000  0.0000  0.0000  0.0000  0.0000
  39   0.0000  0.0000  0.0000  0.0000  0.0000  0.0000  0.0000  0.0000 -0.0003 -0.0225 -1.1152 -0.0225 -0.0003  0.0000  0.0000
       0.0000  0.0000  0.0000  0.0000  0.0000  0.0000
  40   0.0000  0.0000  0.0000  0.0000  0.0000  0.0000  0.0000  0.0000 -0.0003 -0.0207 -1.0809 -0.0207 -0.0003  0.0000  0.0000
       0.0000  0.0000  0.0000  0.0000  0.0000  0.0000
  41   0.0000  0.0000  0.0000  0.0000  0.0000  0.0000  0.0000  0.0000  0.0000  0.0000  0.0000  0.0000  0.0000  0.0000  0.0000
       0.0000  0.0000  0.0000  0.0000  0.0000  0.0000
1
  VOLUMETRIC BUDGET FOR ENTIRE MODEL AT END OF TIME STEP 16 IN STRESS PERIOD   1
  ------------------------------------------------------------------------------

     CUMULATIVE VOLUMES      L**3       RATES FOR THIS TIME STEP      L**3/T
     ------------------                 ------------------------

           IN:                                      IN:
           ---                                      ---
             STORAGE =      284838.3750               STORAGE =     3945687.2500
       CONSTANT HEAD =           0.0000         CONSTANT HEAD =           0.0000
               WELLS =       42002.1016                 WELLS =      126000.0000
              DAFLOW =     3353410.5000                DAFLOW =      971385.1250

            TOTAL IN =     3680251.0000              TOTAL IN =     5043072.5000

          OUT:                                     OUT:
          ----                                     ----
             STORAGE =     3459959.0000               STORAGE =     2110018.2500
       CONSTANT HEAD =       43105.2969         CONSTANT HEAD =      137229.0312
               WELLS =           0.0000                 WELLS =           0.0000
              DAFLOW =      177543.3750                DAFLOW =     2796091.7500

           TOTAL OUT =     3680607.7500             TOTAL OUT =     5043339.0000

            IN - OUT =        -356.7500              IN - OUT =        -266.5000

 PERCENT DISCREPANCY =          -0.01     PERCENT DISCREPANCY =          -0.01






          TIME SUMMARY AT END OF TIME STEP  16 IN STRESS PERIOD    1
                    SECONDS     MINUTES      HOURS       DAYS        YEARS
                    -----------------------------------------------------------
   TIME STEP LENGTH  1800.1      30.002     0.50003     2.08344E-02 5.70414E-05
 STRESS PERIOD TIME  28801.      480.02      8.0004     0.33335     9.12663E-04
         TOTAL TIME  28801.      480.02      8.0004     0.33335     9.12663E-04
1
  No of DAFLOW steps per MODFLOW step =            2
 
 SOLVING FOR HEAD 
     5 CALLS TO PCG ROUTINE FOR TIME STEP  17 IN STRESS PERIOD    1
     9 TOTAL ITERATIONS

 MAXIMUM HEAD CHANGE FOR EACH ITERATION (1 INDICATES THE FIRST INNER ITERATION):

    HEAD CHANGE    HEAD CHANGE    HEAD CHANGE    HEAD CHANGE    HEAD CHANGE 
   LAYER,ROW,COL  LAYER,ROW,COL  LAYER,ROW,COL  LAYER,ROW,COL  LAYER,ROW,COL
 ---------------------------------------------------------------------------
  1 -0.7636E-01  0 -0.1336E-05  1 -0.1439E-01  0 -0.2834E-06  1  0.2243E-02
   (  1,  1, 21)  (  1,  1,  1)  (  1,  1, 21)  (  1,  1,  1)  (  1, 38, 11)
  0  0.3781E-07  1  0.2158E-02  0  0.3629E-07  1  0.3277E-04
   (  1, 39, 10)  (  1, 31, 11)  (  1, 32, 10)  (  1, 21, 11)

 MAXIMUM RESIDUAL FOR EACH ITERATION (1 INDICATES THE FIRST INNER ITERATION):

    RESIDUAL       RESIDUAL       RESIDUAL       RESIDUAL       RESIDUAL    
   LAYER,ROW,COL  LAYER,ROW,COL  LAYER,ROW,COL  LAYER,ROW,COL  LAYER,ROW,COL
 ---------------------------------------------------------------------------
  1   3.507      0  0.4521E-04  1  0.7417      0  0.7800E-05  1 -0.9184E-01
   (  1,  1,  1)  (  1,  5,  1)  (  1,  1,  1)  (  1,  3, 19)  (  1, 39, 10)
  0 -0.1548E-05  1 -0.8866E-01  0 -0.1491E-05  1 -0.1335E-02
   (  1, 40,  9)  (  1, 32, 10)  (  1, 33,  9)  (  1, 22, 10)



 NO OUTPUT CONTROL FOR STRESS PERIOD    1   TIME STEP  17
 Day   1  Hour  8.12 Branch  node  Discharge
                          1    12     68.75    
                          3    32     244.8    
 Day   1  Hour  8.38 Branch  node  Discharge
                          1    12     62.38    
                          3    32     225.8    
  No of DAFLOW steps per MODFLOW step =            2
 
 SOLVING FOR HEAD 
     4 CALLS TO PCG ROUTINE FOR TIME STEP  18 IN STRESS PERIOD    1
     7 TOTAL ITERATIONS

 MAXIMUM HEAD CHANGE FOR EACH ITERATION (1 INDICATES THE FIRST INNER ITERATION):

    HEAD CHANGE    HEAD CHANGE    HEAD CHANGE    HEAD CHANGE    HEAD CHANGE 
   LAYER,ROW,COL  LAYER,ROW,COL  LAYER,ROW,COL  LAYER,ROW,COL  LAYER,ROW,COL
 ---------------------------------------------------------------------------
  1 -0.1005      0 -0.1710E-05  1 -0.2818E-01  0 -0.4205E-06  1  0.1666E-02
   (  1,  1, 21)  (  1,  1,  1)  (  1,  1, 21)  (  1,  2, 20)  (  1,  2,  2)
  0  0.2822E-07  1 -0.2765E-03
   (  1,  1,  3)  (  1,  2,  2)

 MAXIMUM RESIDUAL FOR EACH ITERATION (1 INDICATES THE FIRST INNER ITERATION):

    RESIDUAL       RESIDUAL       RESIDUAL       RESIDUAL       RESIDUAL    
   LAYER,ROW,COL  LAYER,ROW,COL  LAYER,ROW,COL  LAYER,ROW,COL  LAYER,ROW,COL
 ---------------------------------------------------------------------------
  1   4.469      0  0.4671E-04  1   1.103      0  0.1398E-04  1 -0.7336E-01
   (  1,  1,  1)  (  1,  5,  1)  (  1,  2, 20)  (  1,  3, 19)  (  1,  1, 21)
  0  0.9230E-06  1  0.1359E-01
   (  1, 40, 11)  (  1,  3, 19)



 NO OUTPUT CONTROL FOR STRESS PERIOD    1   TIME STEP  18
 Day   1  Hour  8.62 Branch  node  Discharge
                          1    12     55.07    
                          3    32     213.2    
 Day   1  Hour  8.88 Branch  node  Discharge
                          1    12     48.93    
                          3    32     201.9    
  No of DAFLOW steps per MODFLOW step =            2
 
 SOLVING FOR HEAD 
     5 CALLS TO PCG ROUTINE FOR TIME STEP  19 IN STRESS PERIOD    1
     9 TOTAL ITERATIONS

 MAXIMUM HEAD CHANGE FOR EACH ITERATION (1 INDICATES THE FIRST INNER ITERATION):

    HEAD CHANGE    HEAD CHANGE    HEAD CHANGE    HEAD CHANGE    HEAD CHANGE 
   LAYER,ROW,COL  LAYER,ROW,COL  LAYER,ROW,COL  LAYER,ROW,COL  LAYER,ROW,COL
 ---------------------------------------------------------------------------
  1 -0.1180      0 -0.2015E-05  1 -0.1042E-01  0 -0.1750E-06  1 -0.1797E-02
   (  1,  1, 21)  (  1,  1,  1)  (  1,  3,  3)  (  1,  4,  2)  (  1, 29, 11)
  0 -0.3025E-07  1  0.2026E-02  0  0.3409E-07  1  0.4031E-04
   (  1, 30, 10)  (  1, 29, 11)  (  1, 30, 10)  (  1, 20, 11)

 MAXIMUM RESIDUAL FOR EACH ITERATION (1 INDICATES THE FIRST INNER ITERATION):

    RESIDUAL       RESIDUAL       RESIDUAL       RESIDUAL       RESIDUAL    
   LAYER,ROW,COL  LAYER,ROW,COL  LAYER,ROW,COL  LAYER,ROW,COL  LAYER,ROW,COL
 ---------------------------------------------------------------------------
  1   5.230      0  0.4885E-04  1  0.4523      0  0.9687E-05  1  0.7400E-01
   (  1,  1,  1)  (  1,  5,  1)  (  1,  4, 18)  (  1,  1, 21)  (  1, 30, 10)
  0  0.1246E-05  1 -0.8330E-01  0 -0.1402E-05  1 -0.1642E-02
   (  1, 31,  9)  (  1, 30, 10)  (  1, 31,  9)  (  1, 21, 10)



 NO OUTPUT CONTROL FOR STRESS PERIOD    1   TIME STEP  19
 Day   1  Hour  9.12 Branch  node  Discharge
                          1    12     45.07    
                          3    32     190.5    
 Day   1  Hour  9.38 Branch  node  Discharge
                          1    12     41.40    
                          3    32     179.6    
  No of DAFLOW steps per MODFLOW step =            2
 
 SOLVING FOR HEAD 
     4 CALLS TO PCG ROUTINE FOR TIME STEP  20 IN STRESS PERIOD    1
     7 TOTAL ITERATIONS

 MAXIMUM HEAD CHANGE FOR EACH ITERATION (1 INDICATES THE FIRST INNER ITERATION):

    HEAD CHANGE    HEAD CHANGE    HEAD CHANGE    HEAD CHANGE    HEAD CHANGE 
   LAYER,ROW,COL  LAYER,ROW,COL  LAYER,ROW,COL  LAYER,ROW,COL  LAYER,ROW,COL
 ---------------------------------------------------------------------------
  1 -0.9357E-01  0 -0.1800E-05  1 -0.7688E-02  0 -0.1661E-06  1  0.1529E-02
   (  1,  1, 21)  (  1,  1,  1)  (  1,  5,  5)  (  1,  6, 16)  (  1, 35, 11)
  0  0.2569E-07  1  0.4522E-03
   (  1, 36, 10)  (  1, 31, 11)

 MAXIMUM RESIDUAL FOR EACH ITERATION (1 INDICATES THE FIRST INNER ITERATION):

    RESIDUAL       RESIDUAL       RESIDUAL       RESIDUAL       RESIDUAL    
   LAYER,ROW,COL  LAYER,ROW,COL  LAYER,ROW,COL  LAYER,ROW,COL  LAYER,ROW,COL
 ---------------------------------------------------------------------------
  1   4.643      0  0.4991E-04  1  0.4349      0  0.6759E-05  1 -0.6270E-01
   (  1,  1,  1)  (  1,  5,  1)  (  1,  6, 16)  (  1,  9, 13)  (  1, 36, 10)
  0 -0.1054E-05  1 -0.1863E-01
   (  1, 37,  9)  (  1, 32, 10)



 OUTPUT CONTROL FOR STRESS PERIOD    1   TIME STEP  20
    PRINT DRAWDOWN FOR ALL LAYERS
    PRINT BUDGET
 Day   1  Hour  9.62 Branch  node  Discharge
                          1    12     36.17    
                          3    32     170.5    
 Day   1  Hour  9.88 Branch  node  Discharge
                          1    12     31.53    
                          3    32     160.6    
1
          DRAWDOWN IN LAYER   1 AT END OF TIME STEP  20 IN STRESS PERIOD    1
  ---------------------------------------------------------------------------

           1       2       3       4       5       6       7       8       9      10      11      12      13      14      15
          16      17      18      19      20      21
 ...........................................................................................................................
   1  -0.6309 -0.1331 -0.0094 -0.0005  0.0000  0.0000  0.0000  0.0000  0.0000  0.0000  0.0000  0.0000  0.0000  0.0000  0.0000
       0.0000  0.0000 -0.0005 -0.0094 -0.1331 -0.6309
   2  -0.1331 -0.7050 -0.1260 -0.0087 -0.0004  0.0000  0.0000  0.0000  0.0000  0.0000  0.0000  0.0000  0.0000  0.0000  0.0000
       0.0000 -0.0004 -0.0087 -0.1260 -0.7050 -0.1331
   3  -0.0094 -0.1260 -0.7432 -0.1248 -0.0085 -0.0004  0.0000  0.0000  0.0000  0.0000  0.0000  0.0000  0.0000  0.0000  0.0000
      -0.0004 -0.0085 -0.1248 -0.7432 -0.1260 -0.0094
   4  -0.0004 -0.0087 -0.1248 -0.7798 -0.1231 -0.0081 -0.0004  0.0000  0.0000  0.0000  0.0000  0.0000  0.0000  0.0000 -0.0004
      -0.0081 -0.1231 -0.7798 -0.1248 -0.0087 -0.0004
   5   0.0000 -0.0004 -0.0085 -0.1231 -0.8114 -0.1210 -0.0078 -0.0003  0.0000  0.0000  0.0000  0.0000  0.0000 -0.0003 -0.0078
      -0.1210 -0.8114 -0.1231 -0.0085 -0.0004  0.0000
   6   0.0000  0.0000 -0.0004 -0.0081 -0.1210 -0.8343 -0.1179 -0.0074 -0.0003  0.0000  0.0000  0.0000 -0.0003 -0.0074 -0.1179
      -0.8343 -0.1210 -0.0081 -0.0004  0.0000  0.0000
   7   0.0000  0.0000  0.0000 -0.0004 -0.0078 -0.1179 -0.8583 -0.1152 -0.0071 -0.0003  0.0000 -0.0003 -0.0071 -0.1152 -0.8583
      -0.1179 -0.0078 -0.0004  0.0000  0.0000  0.0000
   8   0.0000  0.0000  0.0000  0.0000 -0.0003 -0.0074 -0.1152 -0.8757 -0.1137 -0.0069 -0.0006 -0.0069 -0.1137 -0.8757 -0.1152
      -0.0074 -0.0003  0.0000  0.0000  0.0000  0.0000
   9   0.0000  0.0000  0.0000  0.0000  0.0000 -0.0003 -0.0071 -0.1137 -0.8938 -0.1122 -0.0120 -0.1122 -0.8938 -0.1137 -0.0071
      -0.0003  0.0000  0.0000  0.0000  0.0000  0.0000
  10   0.0000  0.0000  0.0000  0.0000  0.0000  0.0000 -0.0003 -0.0069 -0.1120 -0.9081 -0.1734 -0.9081 -0.1120 -0.0069 -0.0003
       0.0000  0.0000  0.0000  0.0000  0.0000  0.0000
  11   0.0000  0.0000  0.0000  0.0000  0.0000  0.0000  0.0000 -0.0003 -0.0071 -0.1198 -0.9278 -0.1198 -0.0071 -0.0003  0.0000
       0.0000  0.0000  0.0000  0.0000  0.0000  0.0000
  12   0.0000  0.0000  0.0000  0.0000  0.0000  0.0000  0.0000 -0.0001 -0.0020 -0.0656 -1.0350 -0.0656 -0.0020 -0.0001  0.0000
       0.0000  0.0000  0.0000  0.0000  0.0000  0.0000
  13   0.0000  0.0000  0.0000  0.0000  0.0000  0.0000  0.0000  0.0000 -0.0018 -0.0625 -1.0470 -0.0625 -0.0018  0.0000  0.0000
       0.0000  0.0000  0.0000  0.0000  0.0000  0.0000
  14   0.0000  0.0000  0.0000  0.0000  0.0000  0.0000  0.0000  0.0000 -0.0018 -0.0614 -1.0520 -0.0614 -0.0018  0.0000  0.0000
       0.0000  0.0000  0.0000  0.0000  0.0000  0.0000
  15   0.0000  0.0000  0.0000  0.0000  0.0000  0.0000  0.0000  0.0000 -0.0017 -0.0608 -1.0516 -0.0608 -0.0017  0.0000  0.0000
       0.0000  0.0000  0.0000  0.0000  0.0000  0.0000
  16   0.0000  0.0000  0.0000  0.0000  0.0000  0.0000  0.0000  0.0000 -0.0017 -0.0602 -1.0589 -0.0602 -0.0017  0.0000  0.0000
       0.0000  0.0000  0.0000  0.0000  0.0000  0.0000
  17   0.0000  0.0000  0.0000  0.0000  0.0000  0.0000  0.0000  0.0000 -0.0017 -0.0601 -1.0717 -0.0601 -0.0017  0.0000  0.0000
       0.0000  0.0000  0.0000  0.0000  0.0000  0.0000
  18   0.0000  0.0000  0.0000  0.0000  0.0000  0.0000  0.0000  0.0000 -0.0016 -0.0585 -1.0755 -0.0585 -0.0016  0.0000  0.0000
       0.0000  0.0000  0.0000  0.0000  0.0000  0.0000
  19   0.0000  0.0000  0.0000  0.0000  0.0000  0.0000  0.0000  0.0000 -0.0016 -0.0581 -1.0801 -0.0581 -0.0016  0.0000  0.0000
       0.0000  0.0000  0.0000  0.0000  0.0000  0.0000
  20   0.0000  0.0000  0.0000  0.0000  0.0000  0.0000  0.0000  0.0000 -0.0015 -0.0566 -1.0850 -0.0566 -0.0015  0.0000  0.0000
       0.0000  0.0000  0.0000  0.0000  0.0000  0.0000
  21   0.0000  0.0000  0.0000  0.0000  0.0000  0.0000  0.0000  0.0000 -0.0015 -0.0552 -1.0907 -0.0552 -0.0015  0.0000  0.0000
       0.0000  0.0000  0.0000  0.0000  0.0000  0.0000
  22   0.0000  0.0000  0.0000  0.0000  0.0000  0.0000  0.0000  0.0000 -0.0014 -0.0545 -1.0926 -0.0545 -0.0014  0.0000  0.0000
       0.0000  0.0000  0.0000  0.0000  0.0000  0.0000
  23   0.0000  0.0000  0.0000  0.0000  0.0000  0.0000  0.0000  0.0000 -0.0014 -0.0543 -1.0982 -0.0543 -0.0014  0.0000  0.0000
       0.0000  0.0000  0.0000  0.0000  0.0000  0.0000
  24   0.0000  0.0000  0.0000  0.0000  0.0000  0.0000  0.0000  0.0000 -0.0014 -0.0540 -1.1051 -0.0540 -0.0014  0.0000  0.0000
       0.0000  0.0000  0.0000  0.0000  0.0000  0.0000
  25   0.0000  0.0000  0.0000  0.0000  0.0000  0.0000  0.0000  0.0000 -0.0013 -0.0526 -1.1084 -0.0526 -0.0013  0.0000  0.0000
       0.0000  0.0000  0.0000  0.0000  0.0000  0.0000
  26   0.0000  0.0000  0.0000  0.0000  0.0000  0.0000  0.0000  0.0000 -0.0013 -0.0521 -1.1135 -0.0521 -0.0013  0.0000  0.0000
       0.0000  0.0000  0.0000  0.0000  0.0000  0.0000
  27   0.0000  0.0000  0.0000  0.0000  0.0000  0.0000  0.0000  0.0000 -0.0012 -0.0505 -1.1098 -0.0505 -0.0012  0.0000  0.0000
       0.0000  0.0000  0.0000  0.0000  0.0000  0.0000
  28   0.0000  0.0000  0.0000  0.0000  0.0000  0.0000  0.0000  0.0000 -0.0012 -0.0490 -1.1097 -0.0490 -0.0012  0.0000  0.0000
       0.0000  0.0000  0.0000  0.0000  0.0000  0.0000
  29   0.0000  0.0000  0.0000  0.0000  0.0000  0.0000  0.0000  0.0000 -0.0012 -0.0484 -1.1141 -0.0484 -0.0012  0.0000  0.0000
       0.0000  0.0000  0.0000  0.0000  0.0000  0.0000
  30   0.0000  0.0000  0.0000  0.0000  0.0000  0.0000  0.0000  0.0000 -0.0011 -0.0481 -1.1205 -0.0481 -0.0011  0.0000  0.0000
       0.0000  0.0000  0.0000  0.0000  0.0000  0.0000
  31   0.0000  0.0000  0.0000  0.0000  0.0000  0.0000  0.0000  0.0000 -0.0011 -0.0477 -1.1228 -0.0477 -0.0011  0.0000  0.0000
       0.0000  0.0000  0.0000  0.0000  0.0000  0.0000
  32   0.0000  0.0000  0.0000  0.0000  0.0000  0.0000  0.0000  0.0000 -0.0011 -0.0466 -1.1184 -0.0466 -0.0011  0.0000  0.0000
       0.0000  0.0000  0.0000  0.0000  0.0000  0.0000
  33   0.0000  0.0000  0.0000  0.0000  0.0000  0.0000  0.0000  0.0000 -0.0010 -0.0458 -1.1226 -0.0458 -0.0010  0.0000  0.0000
       0.0000  0.0000  0.0000  0.0000  0.0000  0.0000
  34   0.0000  0.0000  0.0000  0.0000  0.0000  0.0000  0.0000  0.0000 -0.0010 -0.0440 -1.1177 -0.0440 -0.0010  0.0000  0.0000
       0.0000  0.0000  0.0000  0.0000  0.0000  0.0000
  35   0.0000  0.0000  0.0000  0.0000  0.0000  0.0000  0.0000  0.0000 -0.0009 -0.0428 -1.1188 -0.0428 -0.0009  0.0000  0.0000
       0.0000  0.0000  0.0000  0.0000  0.0000  0.0000
  36   0.0000  0.0000  0.0000  0.0000  0.0000  0.0000  0.0000  0.0000 -0.0009 -0.0422 -1.1157 -0.0422 -0.0009  0.0000  0.0000
       0.0000  0.0000  0.0000  0.0000  0.0000  0.0000
  37   0.0000  0.0000  0.0000  0.0000  0.0000  0.0000  0.0000  0.0000 -0.0009 -0.0417 -1.1144 -0.0417 -0.0009  0.0000  0.0000
       0.0000  0.0000  0.0000  0.0000  0.0000  0.0000
  38   0.0000  0.0000  0.0000  0.0000  0.0000  0.0000  0.0000  0.0000 -0.0009 -0.0418 -1.1229 -0.0418 -0.0009  0.0000  0.0000
       0.0000  0.0000  0.0000  0.0000  0.0000  0.0000
  39   0.0000  0.0000  0.0000  0.0000  0.0000  0.0000  0.0000  0.0000 -0.0008 -0.0402 -1.1167 -0.0402 -0.0008  0.0000  0.0000
       0.0000  0.0000  0.0000  0.0000  0.0000  0.0000
  40   0.0000  0.0000  0.0000  0.0000  0.0000  0.0000  0.0000  0.0000 -0.0008 -0.0376 -1.0933 -0.0376 -0.0008  0.0000  0.0000
       0.0000  0.0000  0.0000  0.0000  0.0000  0.0000
  41   0.0000  0.0000  0.0000  0.0000  0.0000  0.0000  0.0000  0.0000  0.0000  0.0000  0.0000  0.0000  0.0000  0.0000  0.0000
       0.0000  0.0000  0.0000  0.0000  0.0000  0.0000
1
  VOLUMETRIC BUDGET FOR ENTIRE MODEL AT END OF TIME STEP 20 IN STRESS PERIOD   1
  ------------------------------------------------------------------------------

     CUMULATIVE VOLUMES      L**3       RATES FOR THIS TIME STEP      L**3/T
     ------------------                 ------------------------

           IN:                                      IN:
           ---                                      ---
             STORAGE =      725104.1250               STORAGE =     5710411.5000
       CONSTANT HEAD =           0.0000         CONSTANT HEAD =           0.0000
               WELLS =       52502.6328                 WELLS =      126000.0000
              DAFLOW =     3365866.2500                DAFLOW =        3418.3589

            TOTAL IN =     4143473.0000              TOTAL IN =     5839830.0000

          OUT:                                     OUT:
          ----                                     ----
             STORAGE =     3570630.2500               STORAGE =     1154271.8750
       CONSTANT HEAD =       54578.4648         CONSTANT HEAD =      137700.2500
               WELLS =           0.0000                 WELLS =           0.0000
              DAFLOW =      518672.8125                DAFLOW =     4548506.5000

           TOTAL OUT =     4143881.5000             TOTAL OUT =     5840478.5000

            IN - OUT =        -408.5000              IN - OUT =        -648.5000

 PERCENT DISCREPANCY =          -0.01     PERCENT DISCREPANCY =          -0.01






          TIME SUMMARY AT END OF TIME STEP  20 IN STRESS PERIOD    1
                    SECONDS     MINUTES      HOURS       DAYS        YEARS
                    -----------------------------------------------------------
   TIME STEP LENGTH  1800.1      30.002     0.50003     2.08344E-02 5.70414E-05
 STRESS PERIOD TIME  36002.      600.03      10.001     0.41669     1.14083E-03
         TOTAL TIME  36002.      600.03      10.001     0.41669     1.14083E-03
1
  No of DAFLOW steps per MODFLOW step =            2
 
 SOLVING FOR HEAD 
     4 CALLS TO PCG ROUTINE FOR TIME STEP  21 IN STRESS PERIOD    1
     7 TOTAL ITERATIONS

 MAXIMUM HEAD CHANGE FOR EACH ITERATION (1 INDICATES THE FIRST INNER ITERATION):

    HEAD CHANGE    HEAD CHANGE    HEAD CHANGE    HEAD CHANGE    HEAD CHANGE 
   LAYER,ROW,COL  LAYER,ROW,COL  LAYER,ROW,COL  LAYER,ROW,COL  LAYER,ROW,COL
 ---------------------------------------------------------------------------
  1 -0.7563E-01  0 -0.1602E-05  1 -0.5989E-02  0 -0.1266E-06  1 -0.1429E-02
   (  1,  1, 21)  (  1,  1,  1)  (  1,  8,  8)  (  1,  7, 15)  (  1, 23, 11)
  0 -0.2409E-07  1  0.9261E-03
   (  1, 24, 10)  (  1, 34, 11)

 MAXIMUM RESIDUAL FOR EACH ITERATION (1 INDICATES THE FIRST INNER ITERATION):

    RESIDUAL       RESIDUAL       RESIDUAL       RESIDUAL       RESIDUAL    
   LAYER,ROW,COL  LAYER,ROW,COL  LAYER,ROW,COL  LAYER,ROW,COL  LAYER,ROW,COL
 ---------------------------------------------------------------------------
  1   4.111      0  0.4304E-04  1  0.3307      0 -0.4246E-05  1  0.5897E-01
   (  1,  1,  1)  (  1,  2,  6)  (  1,  7, 15)  (  1, 40, 11)  (  1, 24, 10)
  0  0.9943E-06  1 -0.3801E-01
   (  1, 25,  9)  (  1, 35, 10)



 NO OUTPUT CONTROL FOR STRESS PERIOD    1   TIME STEP  21
 Day   1  Hour 10.12 Branch  node  Discharge
                          1    12     28.47    
                          3    32     152.4    
 Day   1  Hour 10.38 Branch  node  Discharge
                          1    12     26.00    
                          3    32     145.0    
  No of DAFLOW steps per MODFLOW step =            2
 
 SOLVING FOR HEAD 
     4 CALLS TO PCG ROUTINE FOR TIME STEP  22 IN STRESS PERIOD    1
     7 TOTAL ITERATIONS

 MAXIMUM HEAD CHANGE FOR EACH ITERATION (1 INDICATES THE FIRST INNER ITERATION):

    HEAD CHANGE    HEAD CHANGE    HEAD CHANGE    HEAD CHANGE    HEAD CHANGE 
   LAYER,ROW,COL  LAYER,ROW,COL  LAYER,ROW,COL  LAYER,ROW,COL  LAYER,ROW,COL
 ---------------------------------------------------------------------------
  1 -0.6211E-01  0 -0.1416E-05  1 -0.5430E-02  0 -0.1014E-06  1 -0.1513E-02
   (  1,  1, 21)  (  1,  1,  1)  (  1, 27, 11)  (  1, 10, 12)  (  1, 22, 11)
  0 -0.2537E-07  1  0.7924E-04
   (  1, 23, 10)  (  1,  3,  3)

 MAXIMUM RESIDUAL FOR EACH ITERATION (1 INDICATES THE FIRST INNER ITERATION):

    RESIDUAL       RESIDUAL       RESIDUAL       RESIDUAL       RESIDUAL    
   LAYER,ROW,COL  LAYER,ROW,COL  LAYER,ROW,COL  LAYER,ROW,COL  LAYER,ROW,COL
 ---------------------------------------------------------------------------
  1   3.620      0  0.3747E-04  1  0.2646      0  0.3706E-05  1  0.6214E-01
   (  1,  1,  1)  (  1,  6,  2)  (  1, 10, 12)  (  1, 29,  9)  (  1, 23, 10)
  0  0.1042E-05  1 -0.4027E-02
   (  1, 24,  9)  (  1,  4, 18)



 NO OUTPUT CONTROL FOR STRESS PERIOD    1   TIME STEP  22
 Day   1  Hour 10.62 Branch  node  Discharge
                          1    12     23.42    
                          3    32     135.3    
 Day   1  Hour 10.88 Branch  node  Discharge
                          1    12     20.61    
                          3    32     128.3    
  No of DAFLOW steps per MODFLOW step =            2
 
 SOLVING FOR HEAD 
     4 CALLS TO PCG ROUTINE FOR TIME STEP  23 IN STRESS PERIOD    1
     7 TOTAL ITERATIONS

 MAXIMUM HEAD CHANGE FOR EACH ITERATION (1 INDICATES THE FIRST INNER ITERATION):

    HEAD CHANGE    HEAD CHANGE    HEAD CHANGE    HEAD CHANGE    HEAD CHANGE 
   LAYER,ROW,COL  LAYER,ROW,COL  LAYER,ROW,COL  LAYER,ROW,COL  LAYER,ROW,COL
 ---------------------------------------------------------------------------
  1 -0.5172E-01  0 -0.1255E-05  1 -0.4956E-02  0 -0.8324E-07  1  0.1862E-02
   (  1,  1, 21)  (  1,  1,  1)  (  1, 33, 11)  (  1, 34, 10)  (  1, 40, 11)
  0  0.2883E-07  1  0.8780E-03
   (  1, 39, 12)  (  1, 22, 11)

 MAXIMUM RESIDUAL FOR EACH ITERATION (1 INDICATES THE FIRST INNER ITERATION):

    RESIDUAL       RESIDUAL       RESIDUAL       RESIDUAL       RESIDUAL    
   LAYER,ROW,COL  LAYER,ROW,COL  LAYER,ROW,COL  LAYER,ROW,COL  LAYER,ROW,COL
 ---------------------------------------------------------------------------
  1   3.195      0  0.3481E-04  1  0.2019      0  0.3391E-05  1 -0.7037E-01
   (  1,  1,  1)  (  1, 14,  9)  (  1, 34, 10)  (  1, 35,  9)  (  1, 39, 12)
  0 -0.1183E-05  1 -0.3611E-01
   (  1, 38, 13)  (  1, 23, 10)



 NO OUTPUT CONTROL FOR STRESS PERIOD    1   TIME STEP  23
 Day   1  Hour 11.12 Branch  node  Discharge
                          1    12     18.36    
                          3    32     121.7    
 Day   1  Hour 11.38 Branch  node  Discharge
                          1    12     16.73    
                          3    32     114.1    
  No of DAFLOW steps per MODFLOW step =            2
 
 SOLVING FOR HEAD 
     5 CALLS TO PCG ROUTINE FOR TIME STEP  24 IN STRESS PERIOD    1
     9 TOTAL ITERATIONS

 MAXIMUM HEAD CHANGE FOR EACH ITERATION (1 INDICATES THE FIRST INNER ITERATION):

    HEAD CHANGE    HEAD CHANGE    HEAD CHANGE    HEAD CHANGE    HEAD CHANGE 
   LAYER,ROW,COL  LAYER,ROW,COL  LAYER,ROW,COL  LAYER,ROW,COL  LAYER,ROW,COL
 ---------------------------------------------------------------------------
  1 -0.4673E-01  0 -0.1131E-05  1 -0.4345E-02  0 -0.6976E-07  1  0.1096E-02
   (  1, 12, 11)  (  1, 10, 12)  (  1, 40, 11)  (  1, 23, 10)  (  1, 25, 11)
  0  0.1842E-07  1 -0.1016E-02  0 -0.1707E-07  1  0.1401E-04
   (  1, 26, 10)  (  1, 25, 11)  (  1, 26, 10)  (  1, 28, 11)

 MAXIMUM RESIDUAL FOR EACH ITERATION (1 INDICATES THE FIRST INNER ITERATION):

    RESIDUAL       RESIDUAL       RESIDUAL       RESIDUAL       RESIDUAL    
   LAYER,ROW,COL  LAYER,ROW,COL  LAYER,ROW,COL  LAYER,ROW,COL  LAYER,ROW,COL
 ---------------------------------------------------------------------------
  1   2.943      0  0.3295E-04  1  0.1693      0 -0.2951E-05  1 -0.4502E-01
   (  1, 10, 12)  (  1, 15,  9)  (  1, 23, 10)  (  1, 40, 11)  (  1, 26, 10)
  0 -0.7567E-06  1  0.4176E-01  0  0.7018E-06  1 -0.5740E-03
   (  1, 27,  9)  (  1, 26, 10)  (  1, 27,  9)  (  1, 29, 10)



 OUTPUT CONTROL FOR STRESS PERIOD    1   TIME STEP  24
    PRINT DRAWDOWN FOR ALL LAYERS
    PRINT BUDGET
 Day   1  Hour 11.62 Branch  node  Discharge
                          1    12     15.31    
                          3    32     109.5    
 Day   1  Hour 11.88 Branch  node  Discharge
                          1    12     14.24    
                          3    32     101.8    
1
          DRAWDOWN IN LAYER   1 AT END OF TIME STEP  24 IN STRESS PERIOD    1
  ---------------------------------------------------------------------------

           1       2       3       4       5       6       7       8       9      10      11      12      13      14      15
          16      17      18      19      20      21
 ...........................................................................................................................
   1  -0.4051 -0.1436 -0.0134 -0.0008  0.0000  0.0000  0.0000  0.0000  0.0000  0.0000  0.0000  0.0000  0.0000  0.0000  0.0000
       0.0000  0.0000 -0.0008 -0.0134 -0.1436 -0.4051
   2  -0.1437 -0.4983 -0.1370 -0.0125 -0.0007  0.0000  0.0000  0.0000  0.0000  0.0000  0.0000  0.0000  0.0000  0.0000  0.0000
       0.0000 -0.0007 -0.0125 -0.1370 -0.4983 -0.1437
   3  -0.0134 -0.1370 -0.5387 -0.1371 -0.0122 -0.0007  0.0000  0.0000  0.0000  0.0000  0.0000  0.0000  0.0000  0.0000  0.0000
      -0.0007 -0.0122 -0.1371 -0.5387 -0.1370 -0.0134
   4  -0.0008 -0.0125 -0.1371 -0.5738 -0.1366 -0.0118 -0.0007  0.0000  0.0000  0.0000  0.0000  0.0000  0.0000  0.0000 -0.0007
      -0.0118 -0.1366 -0.5738 -0.1371 -0.0125 -0.0008
   5   0.0000 -0.0007 -0.0122 -0.1366 -0.6043 -0.1355 -0.0114 -0.0006  0.0000  0.0000  0.0000  0.0000  0.0000 -0.0006 -0.0114
      -0.1355 -0.6043 -0.1366 -0.0122 -0.0007  0.0000
   6   0.0000  0.0000 -0.0007 -0.0118 -0.1355 -0.6296 -0.1334 -0.0110 -0.0006  0.0000  0.0000  0.0000 -0.0006 -0.0110 -0.1334
      -0.6296 -0.1355 -0.0118 -0.0007  0.0000  0.0000
   7   0.0000  0.0000  0.0000 -0.0007 -0.0114 -0.1334 -0.6546 -0.1316 -0.0107 -0.0006 -0.0001 -0.0006 -0.0107 -0.1316 -0.6546
      -0.1334 -0.0114 -0.0007  0.0000  0.0000  0.0000
   8   0.0000  0.0000  0.0000  0.0000 -0.0006 -0.0110 -0.1316 -0.6758 -0.1309 -0.0105 -0.0011 -0.0105 -0.1309 -0.6758 -0.1316
      -0.0110 -0.0006  0.0000  0.0000  0.0000  0.0000
   9   0.0000  0.0000  0.0000  0.0000  0.0000 -0.0006 -0.0107 -0.1309 -0.6978 -0.1302 -0.0183 -0.1302 -0.6978 -0.1309 -0.0107
      -0.0006  0.0000  0.0000  0.0000  0.0000  0.0000
  10   0.0000  0.0000  0.0000  0.0000  0.0000  0.0000 -0.0006 -0.0104 -0.1300 -0.7177 -0.2003 -0.7177 -0.1300 -0.0104 -0.0006
       0.0000  0.0000  0.0000  0.0000  0.0000  0.0000
  11   0.0000  0.0000  0.0000  0.0000  0.0000  0.0000  0.0000 -0.0006 -0.0108 -0.1386 -0.7114 -0.1386 -0.0108 -0.0006  0.0000
       0.0000  0.0000  0.0000  0.0000  0.0000  0.0000
  12   0.0000  0.0000  0.0000  0.0000  0.0000  0.0000  0.0000 -0.0001 -0.0033 -0.0791 -0.8246 -0.0791 -0.0033 -0.0001  0.0000
       0.0000  0.0000  0.0000  0.0000  0.0000  0.0000
  13   0.0000  0.0000  0.0000  0.0000  0.0000  0.0000  0.0000 -0.0001 -0.0029 -0.0755 -0.8384 -0.0755 -0.0029 -0.0001  0.0000
       0.0000  0.0000  0.0000  0.0000  0.0000  0.0000
  14   0.0000  0.0000  0.0000  0.0000  0.0000  0.0000  0.0000 -0.0001 -0.0029 -0.0745 -0.8454 -0.0745 -0.0029 -0.0001  0.0000
       0.0000  0.0000  0.0000  0.0000  0.0000  0.0000
  15   0.0000  0.0000  0.0000  0.0000  0.0000  0.0000  0.0000 -0.0001 -0.0028 -0.0740 -0.8541 -0.0740 -0.0028 -0.0001  0.0000
       0.0000  0.0000  0.0000  0.0000  0.0000  0.0000
  16   0.0000  0.0000  0.0000  0.0000  0.0000  0.0000  0.0000 -0.0001 -0.0028 -0.0736 -0.8663 -0.0736 -0.0028 -0.0001  0.0000
       0.0000  0.0000  0.0000  0.0000  0.0000  0.0000
  17   0.0000  0.0000  0.0000  0.0000  0.0000  0.0000  0.0000 -0.0001 -0.0028 -0.0736 -0.8772 -0.0736 -0.0028 -0.0001  0.0000
       0.0000  0.0000  0.0000  0.0000  0.0000  0.0000
  18   0.0000  0.0000  0.0000  0.0000  0.0000  0.0000  0.0000 -0.0001 -0.0027 -0.0723 -0.8864 -0.0723 -0.0027 -0.0001  0.0000
       0.0000  0.0000  0.0000  0.0000  0.0000  0.0000
  19   0.0000  0.0000  0.0000  0.0000  0.0000  0.0000  0.0000 -0.0001 -0.0026 -0.0719 -0.8954 -0.0719 -0.0026 -0.0001  0.0000
       0.0000  0.0000  0.0000  0.0000  0.0000  0.0000
  20   0.0000  0.0000  0.0000  0.0000  0.0000  0.0000  0.0000 -0.0001 -0.0025 -0.0707 -0.9048 -0.0707 -0.0025 -0.0001  0.0000
       0.0000  0.0000  0.0000  0.0000  0.0000  0.0000
  21   0.0000  0.0000  0.0000  0.0000  0.0000  0.0000  0.0000 -0.0001 -0.0025 -0.0695 -0.9137 -0.0695 -0.0025 -0.0001  0.0000
       0.0000  0.0000  0.0000  0.0000  0.0000  0.0000
  22   0.0000  0.0000  0.0000  0.0000  0.0000  0.0000  0.0000 -0.0001 -0.0024 -0.0688 -0.9198 -0.0688 -0.0024 -0.0001  0.0000
       0.0000  0.0000  0.0000  0.0000  0.0000  0.0000
  23   0.0000  0.0000  0.0000  0.0000  0.0000  0.0000  0.0000 -0.0001 -0.0024 -0.0688 -0.9306 -0.0688 -0.0024 -0.0001  0.0000
       0.0000  0.0000  0.0000  0.0000  0.0000  0.0000
  24   0.0000  0.0000  0.0000  0.0000  0.0000  0.0000  0.0000 -0.0001 -0.0024 -0.0686 -0.9385 -0.0686 -0.0024 -0.0001  0.0000
       0.0000  0.0000  0.0000  0.0000  0.0000  0.0000
  25   0.0000  0.0000  0.0000  0.0000  0.0000  0.0000  0.0000 -0.0001 -0.0023 -0.0674 -0.9439 -0.0674 -0.0023 -0.0001  0.0000
       0.0000  0.0000  0.0000  0.0000  0.0000  0.0000
  26   0.0000  0.0000  0.0000  0.0000  0.0000  0.0000  0.0000 -0.0001 -0.0023 -0.0670 -0.9546 -0.0670 -0.0023 -0.0001  0.0000
       0.0000  0.0000  0.0000  0.0000  0.0000  0.0000
  27   0.0000  0.0000  0.0000  0.0000  0.0000  0.0000  0.0000 -0.0001 -0.0022 -0.0655 -0.9574 -0.0655 -0.0022 -0.0001  0.0000
       0.0000  0.0000  0.0000  0.0000  0.0000  0.0000
  28   0.0000  0.0000  0.0000  0.0000  0.0000  0.0000  0.0000 -0.0001 -0.0021 -0.0640 -0.9619 -0.0640 -0.0021 -0.0001  0.0000
       0.0000  0.0000  0.0000  0.0000  0.0000  0.0000
  29   0.0000  0.0000  0.0000  0.0000  0.0000  0.0000  0.0000  0.0000 -0.0021 -0.0635 -0.9703 -0.0635 -0.0021  0.0000  0.0000
       0.0000  0.0000  0.0000  0.0000  0.0000  0.0000
  30   0.0000  0.0000  0.0000  0.0000  0.0000  0.0000  0.0000  0.0000 -0.0020 -0.0634 -0.9785 -0.0634 -0.0020  0.0000  0.0000
       0.0000  0.0000  0.0000  0.0000  0.0000  0.0000
  31   0.0000  0.0000  0.0000  0.0000  0.0000  0.0000  0.0000  0.0000 -0.0020 -0.0631 -0.9824 -0.0631 -0.0020  0.0000  0.0000
       0.0000  0.0000  0.0000  0.0000  0.0000  0.0000
  32   0.0000  0.0000  0.0000  0.0000  0.0000  0.0000  0.0000  0.0000 -0.0020 -0.0620 -0.9872 -0.0620 -0.0020  0.0000  0.0000
       0.0000  0.0000  0.0000  0.0000  0.0000  0.0000
  33   0.0000  0.0000  0.0000  0.0000  0.0000  0.0000  0.0000  0.0000 -0.0019 -0.0614 -0.9944 -0.0614 -0.0019  0.0000  0.0000
       0.0000  0.0000  0.0000  0.0000  0.0000  0.0000
  34   0.0000  0.0000  0.0000  0.0000  0.0000  0.0000  0.0000  0.0000 -0.0018 -0.0597 -0.9955 -0.0597 -0.0018  0.0000  0.0000
       0.0000  0.0000  0.0000  0.0000  0.0000  0.0000
  35   0.0000  0.0000  0.0000  0.0000  0.0000  0.0000  0.0000  0.0000 -0.0018 -0.0586 -0.9986 -0.0586 -0.0018  0.0000  0.0000
       0.0000  0.0000  0.0000  0.0000  0.0000  0.0000
  36   0.0000  0.0000  0.0000  0.0000  0.0000  0.0000  0.0000  0.0000 -0.0017 -0.0579 -1.0053 -0.0579 -0.0017  0.0000  0.0000
       0.0000  0.0000  0.0000  0.0000  0.0000  0.0000
  37   0.0000  0.0000  0.0000  0.0000  0.0000  0.0000  0.0000  0.0000 -0.0017 -0.0575 -1.0085 -0.0575 -0.0017  0.0000  0.0000
       0.0000  0.0000  0.0000  0.0000  0.0000  0.0000
  38   0.0000  0.0000  0.0000  0.0000  0.0000  0.0000  0.0000  0.0000 -0.0017 -0.0578 -1.0152 -0.0578 -0.0017  0.0000  0.0000
       0.0000  0.0000  0.0000  0.0000  0.0000  0.0000
  39   0.0000  0.0000  0.0000  0.0000  0.0000  0.0000  0.0000  0.0000 -0.0016 -0.0561 -1.0166 -0.0561 -0.0016  0.0000  0.0000
       0.0000  0.0000  0.0000  0.0000  0.0000  0.0000
  40   0.0000  0.0000  0.0000  0.0000  0.0000  0.0000  0.0000  0.0000 -0.0015 -0.0526 -0.9986 -0.0526 -0.0015  0.0000  0.0000
       0.0000  0.0000  0.0000  0.0000  0.0000  0.0000
  41   0.0000  0.0000  0.0000  0.0000  0.0000  0.0000  0.0000  0.0000  0.0000  0.0000  0.0000  0.0000  0.0000  0.0000  0.0000
       0.0000  0.0000  0.0000  0.0000  0.0000  0.0000
1
  VOLUMETRIC BUDGET FOR ENTIRE MODEL AT END OF TIME STEP 24 IN STRESS PERIOD   1
  ------------------------------------------------------------------------------

     CUMULATIVE VOLUMES      L**3       RATES FOR THIS TIME STEP      L**3/T
     ------------------                 ------------------------

           IN:                                      IN:
           ---                                      ---
             STORAGE =     1166331.1250               STORAGE =     4910297.5000
       CONSTANT HEAD =           0.0000         CONSTANT HEAD =           0.0000
               WELLS =       63003.1641                 WELLS =      126000.0000
              DAFLOW =     3365866.2500                DAFLOW =           0.0000

            TOTAL IN =     4595200.5000              TOTAL IN =     5036297.5000

          OUT:                                     OUT:
          ----                                     ----
             STORAGE =     3652181.2500               STORAGE =      882164.3750
       CONSTANT HEAD =       66024.8984         CONSTANT HEAD =      137068.7500
               WELLS =           0.0000                 WELLS =           0.0000
              DAFLOW =      877439.6250                DAFLOW =     4017420.2500

           TOTAL OUT =     4595646.0000             TOTAL OUT =     5036653.5000

            IN - OUT =        -445.5000              IN - OUT =        -356.0000

 PERCENT DISCREPANCY =          -0.01     PERCENT DISCREPANCY =          -0.01






          TIME SUMMARY AT END OF TIME STEP  24 IN STRESS PERIOD    1
                    SECONDS     MINUTES      HOURS       DAYS        YEARS
                    -----------------------------------------------------------
   TIME STEP LENGTH  1800.1      30.002     0.50003     2.08344E-02 5.70414E-05
 STRESS PERIOD TIME  43202.      720.04      12.001     0.50003     1.36899E-03
         TOTAL TIME  43202.      720.04      12.001     0.50003     1.36899E-03
1
  No of DAFLOW steps per MODFLOW step =            2
 
 SOLVING FOR HEAD 
     4 CALLS TO PCG ROUTINE FOR TIME STEP  25 IN STRESS PERIOD    1
     7 TOTAL ITERATIONS

 MAXIMUM HEAD CHANGE FOR EACH ITERATION (1 INDICATES THE FIRST INNER ITERATION):

    HEAD CHANGE    HEAD CHANGE    HEAD CHANGE    HEAD CHANGE    HEAD CHANGE 
   LAYER,ROW,COL  LAYER,ROW,COL  LAYER,ROW,COL  LAYER,ROW,COL  LAYER,ROW,COL
 ---------------------------------------------------------------------------
  1 -0.4326E-01  0 -0.1061E-05  1 -0.3623E-02  0 -0.6080E-07  1  0.1060E-02
   (  1, 13, 11)  (  1, 10, 12)  (  1, 29, 11)  (  1, 30, 10)  (  1, 39, 11)
  0  0.1787E-07  1 -0.3873E-04
   (  1, 40, 10)  (  1, 30, 11)

 MAXIMUM RESIDUAL FOR EACH ITERATION (1 INDICATES THE FIRST INNER ITERATION):

    RESIDUAL       RESIDUAL       RESIDUAL       RESIDUAL       RESIDUAL    
   LAYER,ROW,COL  LAYER,ROW,COL  LAYER,ROW,COL  LAYER,ROW,COL  LAYER,ROW,COL
 ---------------------------------------------------------------------------
  1   2.754      0  0.3102E-04  1  0.1475      0  0.2475E-05  1 -0.4359E-01
   (  1, 10, 12)  (  1,  9, 13)  (  1, 30, 10)  (  1, 31,  9)  (  1, 40, 10)
  0 -0.6728E-06  1 -0.1982E-02
   (  1, 37, 13)  (  1,  4, 18)



 NO OUTPUT CONTROL FOR STRESS PERIOD    1   TIME STEP  25
 Day   1  Hour 12.12 Branch  node  Discharge
                          1    12     13.54    
                          3    32     95.97    
 Day   1  Hour 12.38 Branch  node  Discharge
                          1    12     12.56    
                          3    32     91.16    
  No of DAFLOW steps per MODFLOW step =            2
 
 SOLVING FOR HEAD 
     3 CALLS TO PCG ROUTINE FOR TIME STEP  26 IN STRESS PERIOD    1
     5 TOTAL ITERATIONS

 MAXIMUM HEAD CHANGE FOR EACH ITERATION (1 INDICATES THE FIRST INNER ITERATION):

    HEAD CHANGE    HEAD CHANGE    HEAD CHANGE    HEAD CHANGE    HEAD CHANGE 
   LAYER,ROW,COL  LAYER,ROW,COL  LAYER,ROW,COL  LAYER,ROW,COL  LAYER,ROW,COL
 ---------------------------------------------------------------------------
  1 -0.3957E-01  0 -0.9836E-06  1 -0.3132E-02  0 -0.5262E-07  1  0.3157E-03
   (  1, 13, 11)  (  1, 10, 12)  (  1, 32, 11)  (  1, 33, 10)  (  1, 35, 11)

 MAXIMUM RESIDUAL FOR EACH ITERATION (1 INDICATES THE FIRST INNER ITERATION):

    RESIDUAL       RESIDUAL       RESIDUAL       RESIDUAL       RESIDUAL    
   LAYER,ROW,COL  LAYER,ROW,COL  LAYER,ROW,COL  LAYER,ROW,COL  LAYER,ROW,COL
 ---------------------------------------------------------------------------
  1   2.548      0  0.2934E-04  1  0.1276      0  0.2143E-05  1  0.1335E-01
   (  1, 10, 12)  (  1,  9, 13)  (  1, 33, 10)  (  1, 34,  9)  (  1,  3, 19)



 NO OUTPUT CONTROL FOR STRESS PERIOD    1   TIME STEP  26
 Day   1  Hour 12.62 Branch  node  Discharge
                          1    12     11.70    
                          3    32     85.10    
 Day   1  Hour 12.88 Branch  node  Discharge
                          1    12     11.00    
                          3    32     81.37    
  No of DAFLOW steps per MODFLOW step =            2
 
 SOLVING FOR HEAD 
     3 CALLS TO PCG ROUTINE FOR TIME STEP  27 IN STRESS PERIOD    1
     5 TOTAL ITERATIONS

 MAXIMUM HEAD CHANGE FOR EACH ITERATION (1 INDICATES THE FIRST INNER ITERATION):

    HEAD CHANGE    HEAD CHANGE    HEAD CHANGE    HEAD CHANGE    HEAD CHANGE 
   LAYER,ROW,COL  LAYER,ROW,COL  LAYER,ROW,COL  LAYER,ROW,COL  LAYER,ROW,COL
 ---------------------------------------------------------------------------
  1 -0.3640E-01  0 -0.8937E-06  1 -0.2495E-02  0 -0.4130E-07  1 -0.2209E-03
   (  1, 13, 11)  (  1, 10, 12)  (  1, 40, 11)  (  1, 31, 10)  (  1,  2,  2)

 MAXIMUM RESIDUAL FOR EACH ITERATION (1 INDICATES THE FIRST INNER ITERATION):

    RESIDUAL       RESIDUAL       RESIDUAL       RESIDUAL       RESIDUAL    
   LAYER,ROW,COL  LAYER,ROW,COL  LAYER,ROW,COL  LAYER,ROW,COL  LAYER,ROW,COL
 ---------------------------------------------------------------------------
  1   2.310      0  0.2717E-04  1  0.1001      0 -0.1706E-05  1  0.1001E-01
   (  1, 10, 12)  (  1,  9, 13)  (  1, 31, 10)  (  1, 40, 11)  (  1,  3, 19)



 NO OUTPUT CONTROL FOR STRESS PERIOD    1   TIME STEP  27
 Day   1  Hour 13.12 Branch  node  Discharge
                          1    12     10.40    
                          3    32     76.34    
 Day   1  Hour 13.38 Branch  node  Discharge
                          1    12     9.823    
                          3    32     73.19    
  No of DAFLOW steps per MODFLOW step =            2
 
 SOLVING FOR HEAD 
     3 CALLS TO PCG ROUTINE FOR TIME STEP  28 IN STRESS PERIOD    1
     5 TOTAL ITERATIONS

 MAXIMUM HEAD CHANGE FOR EACH ITERATION (1 INDICATES THE FIRST INNER ITERATION):

    HEAD CHANGE    HEAD CHANGE    HEAD CHANGE    HEAD CHANGE    HEAD CHANGE 
   LAYER,ROW,COL  LAYER,ROW,COL  LAYER,ROW,COL  LAYER,ROW,COL  LAYER,ROW,COL
 ---------------------------------------------------------------------------
  1 -0.3341E-01  0 -0.8257E-06  1 -0.3014E-02  0 -0.5048E-07  1  0.2323E-03
   (  1, 20, 11)  (  1, 10, 12)  (  1, 39, 11)  (  1, 40, 10)  (  1, 34, 11)

 MAXIMUM RESIDUAL FOR EACH ITERATION (1 INDICATES THE FIRST INNER ITERATION):

    RESIDUAL       RESIDUAL       RESIDUAL       RESIDUAL       RESIDUAL    
   LAYER,ROW,COL  LAYER,ROW,COL  LAYER,ROW,COL  LAYER,ROW,COL  LAYER,ROW,COL
 ---------------------------------------------------------------------------
  1   2.130      0 -0.2605E-04  1  0.1229      0  0.1917E-05  1 -0.9542E-02
   (  1, 10, 12)  (  1, 40, 11)  (  1, 40, 10)  (  1, 38,  9)  (  1, 35, 10)



 OUTPUT CONTROL FOR STRESS PERIOD    1   TIME STEP  28
    PRINT DRAWDOWN FOR ALL LAYERS
    PRINT BUDGET
 Day   1  Hour 13.62 Branch  node  Discharge
                          1    12     9.287    
                          3    32     68.81    
 Day   1  Hour 13.88 Branch  node  Discharge
                          1    12     8.819    
                          3    32     65.59    
1
          DRAWDOWN IN LAYER   1 AT END OF TIME STEP  28 IN STRESS PERIOD    1
  ---------------------------------------------------------------------------

           1       2       3       4       5       6       7       8       9      10      11      12      13      14      15
          16      17      18      19      20      21
 ...........................................................................................................................
   1  -0.2874 -0.1490 -0.0174 -0.0013 -0.0001  0.0000  0.0000  0.0000  0.0000  0.0000  0.0000  0.0000  0.0000  0.0000  0.0000
       0.0000 -0.0001 -0.0013 -0.0174 -0.1490 -0.2874
   2  -0.1490 -0.3772 -0.1427 -0.0162 -0.0012 -0.0001  0.0000  0.0000  0.0000  0.0000  0.0000  0.0000  0.0000  0.0000  0.0000
      -0.0001 -0.0012 -0.0162 -0.1427 -0.3772 -0.1490
   3  -0.0174 -0.1427 -0.4153 -0.1439 -0.0160 -0.0011 -0.0001  0.0000  0.0000  0.0000  0.0000  0.0000  0.0000  0.0000 -0.0001
      -0.0011 -0.0160 -0.1439 -0.4153 -0.1427 -0.0174
   4  -0.0013 -0.0162 -0.1439 -0.4469 -0.1444 -0.0156 -0.0011 -0.0001  0.0000  0.0000  0.0000  0.0000  0.0000 -0.0001 -0.0011
      -0.0156 -0.1444 -0.4469 -0.1439 -0.0162 -0.0013
   5  -0.0001 -0.0012 -0.0160 -0.1444 -0.4746 -0.1442 -0.0152 -0.0010 -0.0001  0.0000  0.0000  0.0000 -0.0001 -0.0010 -0.0152
      -0.1442 -0.4746 -0.1444 -0.0160 -0.0012 -0.0001
   6   0.0000 -0.0001 -0.0011 -0.0156 -0.1442 -0.4985 -0.1431 -0.0148 -0.0010 -0.0001  0.0000 -0.0001 -0.0010 -0.0148 -0.1431
      -0.4985 -0.1442 -0.0156 -0.0011 -0.0001  0.0000
   7   0.0000  0.0000 -0.0001 -0.0011 -0.0152 -0.1431 -0.5219 -0.1421 -0.0144 -0.0010 -0.0001 -0.0010 -0.0144 -0.1421 -0.5219
      -0.1431 -0.0152 -0.0011 -0.0001  0.0000  0.0000
   8   0.0000  0.0000  0.0000 -0.0001 -0.0010 -0.0148 -0.1421 -0.5413 -0.1420 -0.0142 -0.0018 -0.0142 -0.1420 -0.5413 -0.1421
      -0.0148 -0.0010 -0.0001  0.0000  0.0000  0.0000
   9   0.0000  0.0000  0.0000  0.0000 -0.0001 -0.0010 -0.0145 -0.1420 -0.5613 -0.1422 -0.0250 -0.1422 -0.5613 -0.1420 -0.0145
      -0.0010 -0.0001  0.0000  0.0000  0.0000  0.0000
  10   0.0000  0.0000  0.0000  0.0000  0.0000 -0.0001 -0.0010 -0.0142 -0.1419 -0.5811 -0.2177 -0.5811 -0.1419 -0.0142 -0.0010
      -0.0001  0.0000  0.0000  0.0000  0.0000  0.0000
  11   0.0000  0.0000  0.0000  0.0000  0.0000  0.0000 -0.0001 -0.0010 -0.0147 -0.1512 -0.5682 -0.1512 -0.0147 -0.0010 -0.0001
       0.0000  0.0000  0.0000  0.0000  0.0000  0.0000
  12   0.0000  0.0000  0.0000  0.0000  0.0000  0.0000  0.0000 -0.0002 -0.0047 -0.0893 -0.6690 -0.0893 -0.0047 -0.0002  0.0000
       0.0000  0.0000  0.0000  0.0000  0.0000  0.0000
  13   0.0000  0.0000  0.0000  0.0000  0.0000  0.0000  0.0000 -0.0001 -0.0042 -0.0852 -0.6812 -0.0852 -0.0042 -0.0001  0.0000
       0.0000  0.0000  0.0000  0.0000  0.0000  0.0000
  14   0.0000  0.0000  0.0000  0.0000  0.0000  0.0000  0.0000 -0.0001 -0.0041 -0.0843 -0.6907 -0.0843 -0.0041 -0.0001  0.0000
       0.0000  0.0000  0.0000  0.0000  0.0000  0.0000
  15   0.0000  0.0000  0.0000  0.0000  0.0000  0.0000  0.0000 -0.0001 -0.0040 -0.0839 -0.7009 -0.0839 -0.0040 -0.0001  0.0000
       0.0000  0.0000  0.0000  0.0000  0.0000  0.0000
  16   0.0000  0.0000  0.0000  0.0000  0.0000  0.0000  0.0000 -0.0001 -0.0040 -0.0838 -0.7104 -0.0838 -0.0040 -0.0001  0.0000
       0.0000  0.0000  0.0000  0.0000  0.0000  0.0000
  17   0.0000  0.0000  0.0000  0.0000  0.0000  0.0000  0.0000 -0.0001 -0.0040 -0.0839 -0.7220 -0.0839 -0.0040 -0.0001  0.0000
       0.0000  0.0000  0.0000  0.0000  0.0000  0.0000
  18   0.0000  0.0000  0.0000  0.0000  0.0000  0.0000  0.0000 -0.0001 -0.0039 -0.0828 -0.7325 -0.0828 -0.0039 -0.0001  0.0000
       0.0000  0.0000  0.0000  0.0000  0.0000  0.0000
  19   0.0000  0.0000  0.0000  0.0000  0.0000  0.0000  0.0000 -0.0001 -0.0038 -0.0826 -0.7406 -0.0826 -0.0038 -0.0001  0.0000
       0.0000  0.0000  0.0000  0.0000  0.0000  0.0000
  20   0.0000  0.0000  0.0000  0.0000  0.0000  0.0000  0.0000 -0.0001 -0.0037 -0.0816 -0.7509 -0.0816 -0.0037 -0.0001  0.0000
       0.0000  0.0000  0.0000  0.0000  0.0000  0.0000
  21   0.0000  0.0000  0.0000  0.0000  0.0000  0.0000  0.0000 -0.0001 -0.0036 -0.0805 -0.7610 -0.0805 -0.0036 -0.0001  0.0000
       0.0000  0.0000  0.0000  0.0000  0.0000  0.0000
  22   0.0000  0.0000  0.0000  0.0000  0.0000  0.0000  0.0000 -0.0001 -0.0036 -0.0800 -0.7676 -0.0800 -0.0036 -0.0001  0.0000
       0.0000  0.0000  0.0000  0.0000  0.0000  0.0000
  23   0.0000  0.0000  0.0000  0.0000  0.0000  0.0000  0.0000 -0.0001 -0.0036 -0.0802 -0.7790 -0.0802 -0.0036 -0.0001  0.0000
       0.0000  0.0000  0.0000  0.0000  0.0000  0.0000
  24   0.0000  0.0000  0.0000  0.0000  0.0000  0.0000  0.0000 -0.0001 -0.0036 -0.0802 -0.7871 -0.0802 -0.0036 -0.0001  0.0000
       0.0000  0.0000  0.0000  0.0000  0.0000  0.0000
  25   0.0000  0.0000  0.0000  0.0000  0.0000  0.0000  0.0000 -0.0001 -0.0035 -0.0791 -0.7955 -0.0791 -0.0035 -0.0001  0.0000
       0.0000  0.0000  0.0000  0.0000  0.0000  0.0000
  26   0.0000  0.0000  0.0000  0.0000  0.0000  0.0000  0.0000 -0.0001 -0.0034 -0.0788 -0.8039 -0.0788 -0.0034 -0.0001  0.0000
       0.0000  0.0000  0.0000  0.0000  0.0000  0.0000
  27   0.0000  0.0000  0.0000  0.0000  0.0000  0.0000  0.0000 -0.0001 -0.0033 -0.0775 -0.8109 -0.0775 -0.0033 -0.0001  0.0000
       0.0000  0.0000  0.0000  0.0000  0.0000  0.0000
  28   0.0000  0.0000  0.0000  0.0000  0.0000  0.0000  0.0000 -0.0001 -0.0032 -0.0762 -0.8191 -0.0762 -0.0032 -0.0001  0.0000
       0.0000  0.0000  0.0000  0.0000  0.0000  0.0000
  29   0.0000  0.0000  0.0000  0.0000  0.0000  0.0000  0.0000 -0.0001 -0.0032 -0.0759 -0.8260 -0.0759 -0.0032 -0.0001  0.0000
       0.0000  0.0000  0.0000  0.0000  0.0000  0.0000
  30   0.0000  0.0000  0.0000  0.0000  0.0000  0.0000  0.0000 -0.0001 -0.0031 -0.0759 -0.8354 -0.0759 -0.0031 -0.0001  0.0000
       0.0000  0.0000  0.0000  0.0000  0.0000  0.0000
  31   0.0000  0.0000  0.0000  0.0000  0.0000  0.0000  0.0000 -0.0001 -0.0031 -0.0757 -0.8428 -0.0757 -0.0031 -0.0001  0.0000
       0.0000  0.0000  0.0000  0.0000  0.0000  0.0000
  32   0.0000  0.0000  0.0000  0.0000  0.0000  0.0000  0.0000 -0.0001 -0.0031 -0.0747 -0.8482 -0.0747 -0.0031 -0.0001  0.0000
       0.0000  0.0000  0.0000  0.0000  0.0000  0.0000
  33   0.0000  0.0000  0.0000  0.0000  0.0000  0.0000  0.0000 -0.0001 -0.0030 -0.0742 -0.8567 -0.0742 -0.0030 -0.0001  0.0000
       0.0000  0.0000  0.0000  0.0000  0.0000  0.0000
  34   0.0000  0.0000  0.0000  0.0000  0.0000  0.0000  0.0000 -0.0001 -0.0029 -0.0726 -0.8625 -0.0726 -0.0029 -0.0001  0.0000
       0.0000  0.0000  0.0000  0.0000  0.0000  0.0000
  35   0.0000  0.0000  0.0000  0.0000  0.0000  0.0000  0.0000 -0.0001 -0.0028 -0.0716 -0.8670 -0.0716 -0.0028 -0.0001  0.0000
       0.0000  0.0000  0.0000  0.0000  0.0000  0.0000
  36   0.0000  0.0000  0.0000  0.0000  0.0000  0.0000  0.0000 -0.0001 -0.0028 -0.0712 -0.8745 -0.0712 -0.0028 -0.0001  0.0000
       0.0000  0.0000  0.0000  0.0000  0.0000  0.0000
  37   0.0000  0.0000  0.0000  0.0000  0.0000  0.0000  0.0000 -0.0001 -0.0027 -0.0709 -0.8821 -0.0709 -0.0027 -0.0001  0.0000
       0.0000  0.0000  0.0000  0.0000  0.0000  0.0000
  38   0.0000  0.0000  0.0000  0.0000  0.0000  0.0000  0.0000 -0.0001 -0.0027 -0.0711 -0.8875 -0.0711 -0.0027 -0.0001  0.0000
       0.0000  0.0000  0.0000  0.0000  0.0000  0.0000
  39   0.0000  0.0000  0.0000  0.0000  0.0000  0.0000  0.0000 -0.0001 -0.0026 -0.0696 -0.8921 -0.0696 -0.0026 -0.0001  0.0000
       0.0000  0.0000  0.0000  0.0000  0.0000  0.0000
  40   0.0000  0.0000  0.0000  0.0000  0.0000  0.0000  0.0000 -0.0001 -0.0024 -0.0651 -0.8782 -0.0651 -0.0024 -0.0001  0.0000
       0.0000  0.0000  0.0000  0.0000  0.0000  0.0000
  41   0.0000  0.0000  0.0000  0.0000  0.0000  0.0000  0.0000  0.0000  0.0000  0.0000  0.0000  0.0000  0.0000  0.0000  0.0000
       0.0000  0.0000  0.0000  0.0000  0.0000  0.0000
1
  VOLUMETRIC BUDGET FOR ENTIRE MODEL AT END OF TIME STEP 28 IN STRESS PERIOD   1
  ------------------------------------------------------------------------------

     CUMULATIVE VOLUMES      L**3       RATES FOR THIS TIME STEP      L**3/T
     ------------------                 ------------------------

           IN:                                      IN:
           ---                                      ---
             STORAGE =     1511944.3750               STORAGE =     3705596.2500
       CONSTANT HEAD =           0.0000         CONSTANT HEAD =           0.0000
               WELLS =       73503.6953                 WELLS =      126000.0000
              DAFLOW =     3365866.2500                DAFLOW =           0.0000

            TOTAL IN =     4951314.5000              TOTAL IN =     3831596.2500

          OUT:                                     OUT:
          ----                                     ----
             STORAGE =     3714809.2500               STORAGE =      681282.5625
       CONSTANT HEAD =       77399.7266         CONSTANT HEAD =      136133.0312
               WELLS =           0.0000                 WELLS =           0.0000
              DAFLOW =     1159597.8750                DAFLOW =     3014822.7500

           TOTAL OUT =     4951807.0000             TOTAL OUT =     3832238.2500

            IN - OUT =        -492.5000              IN - OUT =        -642.0000

 PERCENT DISCREPANCY =          -0.01     PERCENT DISCREPANCY =          -0.02






          TIME SUMMARY AT END OF TIME STEP  28 IN STRESS PERIOD    1
                    SECONDS     MINUTES      HOURS       DAYS        YEARS
                    -----------------------------------------------------------
   TIME STEP LENGTH  1800.1      30.002     0.50003     2.08344E-02 5.70414E-05
 STRESS PERIOD TIME  50403.      840.04      14.001     0.58336     1.59716E-03
         TOTAL TIME  50403.      840.04      14.001     0.58336     1.59716E-03
1
  No of DAFLOW steps per MODFLOW step =            2
 
 SOLVING FOR HEAD 
     3 CALLS TO PCG ROUTINE FOR TIME STEP  29 IN STRESS PERIOD    1
     5 TOTAL ITERATIONS

 MAXIMUM HEAD CHANGE FOR EACH ITERATION (1 INDICATES THE FIRST INNER ITERATION):

    HEAD CHANGE    HEAD CHANGE    HEAD CHANGE    HEAD CHANGE    HEAD CHANGE 
   LAYER,ROW,COL  LAYER,ROW,COL  LAYER,ROW,COL  LAYER,ROW,COL  LAYER,ROW,COL
 ---------------------------------------------------------------------------
  1 -0.3113E-01  0 -0.7657E-06  1 -0.2162E-02  0 -0.3366E-07  1 -0.3051E-03
   (  1, 26, 11)  (  1, 10, 12)  (  1, 40, 11)  (  1, 39, 12)  (  1, 27, 11)

 MAXIMUM RESIDUAL FOR EACH ITERATION (1 INDICATES THE FIRST INNER ITERATION):

    RESIDUAL       RESIDUAL       RESIDUAL       RESIDUAL       RESIDUAL    
   LAYER,ROW,COL  LAYER,ROW,COL  LAYER,ROW,COL  LAYER,ROW,COL  LAYER,ROW,COL
 ---------------------------------------------------------------------------
  1   1.972      0 -0.2457E-04  1  0.8189E-01  0 -0.1455E-05  1  0.1259E-01
   (  1, 10, 12)  (  1, 40, 11)  (  1, 39, 12)  (  1, 40, 11)  (  1, 28, 10)



 NO OUTPUT CONTROL FOR STRESS PERIOD    1   TIME STEP  29
 Day   1  Hour 14.12 Branch  node  Discharge
                          1    12     8.332    
                          3    32     61.94    
 Day   1  Hour 14.38 Branch  node  Discharge
                          1    12     7.904    
                          3    32     58.97    
  No of DAFLOW steps per MODFLOW step =            2
 
 SOLVING FOR HEAD 
     3 CALLS TO PCG ROUTINE FOR TIME STEP  30 IN STRESS PERIOD    1
     5 TOTAL ITERATIONS

 MAXIMUM HEAD CHANGE FOR EACH ITERATION (1 INDICATES THE FIRST INNER ITERATION):

    HEAD CHANGE    HEAD CHANGE    HEAD CHANGE    HEAD CHANGE    HEAD CHANGE 
   LAYER,ROW,COL  LAYER,ROW,COL  LAYER,ROW,COL  LAYER,ROW,COL  LAYER,ROW,COL
 ---------------------------------------------------------------------------
  1 -0.2920E-01  0 -0.7101E-06  1 -0.1721E-02  0 -0.2890E-07  1 -0.2736E-03
   (  1, 25, 11)  (  1, 10, 12)  (  1, 38, 11)  (  1, 39, 10)  (  1, 18, 11)

 MAXIMUM RESIDUAL FOR EACH ITERATION (1 INDICATES THE FIRST INNER ITERATION):

    RESIDUAL       RESIDUAL       RESIDUAL       RESIDUAL       RESIDUAL    
   LAYER,ROW,COL  LAYER,ROW,COL  LAYER,ROW,COL  LAYER,ROW,COL  LAYER,ROW,COL
 ---------------------------------------------------------------------------
  1   1.826      0 -0.2419E-04  1  0.7004E-01  0  0.1176E-05  1  0.1125E-01
   (  1,  9, 13)  (  1, 40, 11)  (  1, 39, 10)  (  1, 40,  9)  (  1, 19, 10)



 NO OUTPUT CONTROL FOR STRESS PERIOD    1   TIME STEP  30
 Day   1  Hour 14.62 Branch  node  Discharge
                          1    12     7.511    
                          3    32     56.25    
 Day   1  Hour 14.88 Branch  node  Discharge
                          1    12     7.147    
                          3    32     53.71    
  No of DAFLOW steps per MODFLOW step =            2
 
 SOLVING FOR HEAD 
     3 CALLS TO PCG ROUTINE FOR TIME STEP  31 IN STRESS PERIOD    1
     5 TOTAL ITERATIONS

 MAXIMUM HEAD CHANGE FOR EACH ITERATION (1 INDICATES THE FIRST INNER ITERATION):

    HEAD CHANGE    HEAD CHANGE    HEAD CHANGE    HEAD CHANGE    HEAD CHANGE 
   LAYER,ROW,COL  LAYER,ROW,COL  LAYER,ROW,COL  LAYER,ROW,COL  LAYER,ROW,COL
 ---------------------------------------------------------------------------
  1 -0.2743E-01  0 -0.6603E-06  1 -0.1845E-02  0 -0.3091E-07  1 -0.1888E-03
   (  1, 30, 11)  (  1,  9, 13)  (  1, 39, 11)  (  1, 40, 10)  (  1, 16, 11)

 MAXIMUM RESIDUAL FOR EACH ITERATION (1 INDICATES THE FIRST INNER ITERATION):

    RESIDUAL       RESIDUAL       RESIDUAL       RESIDUAL       RESIDUAL    
   LAYER,ROW,COL  LAYER,ROW,COL  LAYER,ROW,COL  LAYER,ROW,COL  LAYER,ROW,COL
 ---------------------------------------------------------------------------
  1   1.697      0 -0.2316E-04  1  0.7524E-01  0  0.1179E-05  1  0.7740E-02
   (  1,  9, 13)  (  1, 40, 11)  (  1, 40, 10)  (  1, 37, 13)  (  1, 17, 10)



 NO OUTPUT CONTROL FOR STRESS PERIOD    1   TIME STEP  31
 Day   1  Hour 15.12 Branch  node  Discharge
                          1    12     6.807    
                          3    32     51.05    
 Day   1  Hour 15.38 Branch  node  Discharge
                          1    12     6.464    
                          3    32     49.19    
  No of DAFLOW steps per MODFLOW step =            2
 
 SOLVING FOR HEAD 
     3 CALLS TO PCG ROUTINE FOR TIME STEP  32 IN STRESS PERIOD    1
     5 TOTAL ITERATIONS

 MAXIMUM HEAD CHANGE FOR EACH ITERATION (1 INDICATES THE FIRST INNER ITERATION):

    HEAD CHANGE    HEAD CHANGE    HEAD CHANGE    HEAD CHANGE    HEAD CHANGE 
   LAYER,ROW,COL  LAYER,ROW,COL  LAYER,ROW,COL  LAYER,ROW,COL  LAYER,ROW,COL
 ---------------------------------------------------------------------------
  1 -0.2571E-01  0 -0.6168E-06  1 -0.1785E-02  0 -0.2792E-07  1 -0.9034E-04
   (  1, 30, 11)  (  1,  9, 13)  (  1, 40, 11)  (  1, 39, 12)  (  1,  3,  3)

 MAXIMUM RESIDUAL FOR EACH ITERATION (1 INDICATES THE FIRST INNER ITERATION):

    RESIDUAL       RESIDUAL       RESIDUAL       RESIDUAL       RESIDUAL    
   LAYER,ROW,COL  LAYER,ROW,COL  LAYER,ROW,COL  LAYER,ROW,COL  LAYER,ROW,COL
 ---------------------------------------------------------------------------
  1   1.583      0 -0.2146E-04  1  0.6795E-01  0 -0.1169E-05  1  0.4529E-02
   (  1,  9, 13)  (  1, 40, 11)  (  1, 39, 12)  (  1, 40, 11)  (  1,  4, 18)



 OUTPUT CONTROL FOR STRESS PERIOD    1   TIME STEP  32
    PRINT HEAD FOR ALL LAYERS
    PRINT DRAWDOWN FOR ALL LAYERS
    PRINT BUDGET
 Day   1  Hour 15.62 Branch  node  Discharge
                          1    12     6.159    
                          3    32     47.14    
 Day   1  Hour 15.88 Branch  node  Discharge
                          1    12     5.885    
                          3    32     44.97    
1
              HEAD IN LAYER   1 AT END OF TIME STEP  32 IN STRESS PERIOD    1
  ---------------------------------------------------------------------------

           1       2       3       4       5       6       7       8       9      10      11      12      13      14      15
          16      17      18      19      20      21
 ...........................................................................................................................
   1  25.5175 25.4512 25.3213 25.3018 25.3001 25.3000 25.3000 25.3000 25.3000 25.3000 25.3000 25.3000 25.3000 25.3000 25.3000
      25.3000 25.3001 25.3018 25.3213 25.4512 25.5175
   2  24.8512 24.9999 24.8452 24.7199 24.7017 24.7001 24.7000 24.7000 24.7000 24.7000 24.7000 24.7000 24.7000 24.7000 24.7000
      24.7001 24.7017 24.7199 24.8452 24.9999 24.8512
   3  24.1214 24.2452 24.4345 24.2474 24.1197 24.1016 24.1001 24.1000 24.1000 24.1000 24.1000 24.1000 24.1000 24.1000 24.1001
      24.1016 24.1197 24.2474 24.4345 24.2452 24.1213
   4  23.5018 23.5199 23.6474 23.8629 23.6487 23.5194 23.5016 23.5001 23.5000 23.5000 23.5000 23.5000 23.5000 23.5001 23.5016
      23.5194 23.6487 23.8629 23.6474 23.5199 23.5018
   5  22.9001 22.9017 22.9197 23.0487 23.2876 23.0493 22.9190 22.9015 22.9001 22.9000 22.9000 22.9000 22.9001 22.9015 22.9190
      23.0493 23.2876 23.0487 22.9197 22.9017 22.9001
   6  22.3000 22.3001 22.3016 22.3194 22.4493 22.7093 22.4489 22.3186 22.3015 22.3001 22.3000 22.3001 22.3015 22.3186 22.4489
      22.7093 22.4493 22.3194 22.3016 22.3001 22.3000
   7  21.7000 21.7000 21.7001 21.7016 21.7190 21.8489 22.1305 21.8486 21.7183 21.7014 21.7002 21.7014 21.7183 21.8486 22.1305
      21.8489 21.7190 21.7016 21.7001 21.7000 21.7000
   8  21.1000 21.1000 21.1000 21.1001 21.1015 21.1186 21.2486 21.5484 21.2492 21.1181 21.1027 21.1181 21.2492 21.5484 21.2486
      21.1186 21.1015 21.1001 21.1000 21.1000 21.1000
   9  20.5000 20.5000 20.5000 20.5000 20.5001 20.5015 20.5183 20.6492 20.9665 20.6501 20.5317 20.6501 20.9665 20.6492 20.5183
      20.5015 20.5001 20.5000 20.5000 20.5000 20.5000
  10  19.9000 19.9000 19.9000 19.9000 19.9000 19.9001 19.9014 19.9181 20.0496 20.3852 20.1289 20.3852 20.0496 19.9181 19.9014
      19.9001 19.9000 19.9000 19.9000 19.9000 19.9000
  11  19.3000 19.3000 19.3000 19.3000 19.3000 19.3000 19.3001 19.3015 19.3187 19.4597 19.7729 19.4597 19.3187 19.3015 19.3001
      19.3000 19.3000 19.3000 19.3000 19.3000 19.3000
  12  18.7000 18.7000 18.7000 18.7000 18.7000 18.7000 18.7000 18.7003 18.7063 18.7972 19.2588 18.7972 18.7063 18.7003 18.7000
      18.7000 18.7000 18.7000 18.7000 18.7000 18.7000
  13  18.1000 18.1000 18.1000 18.1000 18.1000 18.1000 18.1000 18.1002 18.1055 18.1924 18.6695 18.1924 18.1055 18.1002 18.1000
      18.1000 18.1000 18.1000 18.1000 18.1000 18.1000
  14  17.5000 17.5000 17.5000 17.5000 17.5000 17.5000 17.5000 17.5002 17.5054 17.5917 18.0805 17.5917 17.5054 17.5002 17.5000
      17.5000 17.5000 17.5000 17.5000 17.5000 17.5000
  15  16.9000 16.9000 16.9000 16.9000 16.9000 16.9000 16.9000 16.9002 16.9054 16.9915 17.4895 16.9915 16.9054 16.9002 16.9000
      16.9000 16.9000 16.9000 16.9000 16.9000 16.9000
  16  16.3000 16.3000 16.3000 16.3000 16.3000 16.3000 16.3000 16.3002 16.3053 16.3915 16.8979 16.3915 16.3053 16.3002 16.3000
      16.3000 16.3000 16.3000 16.3000 16.3000 16.3000
  17  15.7000 15.7000 15.7000 15.7000 15.7000 15.7000 15.7000 15.7002 15.7053 15.7918 16.3091 15.7918 15.7053 15.7002 15.7000
      15.7000 15.7000 15.7000 15.7000 15.7000 15.7000
  18  15.1000 15.1000 15.1000 15.1000 15.1000 15.1000 15.1000 15.1002 15.1052 15.1909 15.7190 15.1909 15.1052 15.1002 15.1000
      15.1000 15.1000 15.1000 15.1000 15.1000 15.1000
  19  14.5000 14.5000 14.5000 14.5000 14.5000 14.5000 14.5000 14.5002 14.5051 14.5908 15.1267 14.5908 14.5051 14.5002 14.5000
      14.5000 14.5000 14.5000 14.5000 14.5000 14.5000
  20  13.9000 13.9000 13.9000 13.9000 13.9000 13.9000 13.9000 13.9002 13.9050 13.9900 14.5365 13.9900 13.9050 13.9002 13.9000
      13.9000 13.9000 13.9000 13.9000 13.9000 13.9000
  21  13.3000 13.3000 13.3000 13.3000 13.3000 13.3000 13.3000 13.3002 13.3049 13.3892 13.9458 13.3892 13.3049 13.3002 13.3000
      13.3000 13.3000 13.3000 13.3000 13.3000 13.3000
  22  12.7000 12.7000 12.7000 12.7000 12.7000 12.7000 12.7000 12.7002 12.7049 12.7888 13.3532 12.7888 12.7049 12.7002 12.7000
      12.7000 12.7000 12.7000 12.7000 12.7000 12.7000
  23  12.1000 12.1000 12.1000 12.1000 12.1000 12.1000 12.1000 12.1002 12.1049 12.1891 12.7625 12.1891 12.1049 12.1002 12.1000
      12.1000 12.1000 12.1000 12.1000 12.1000 12.1000
  24  11.5000 11.5000 11.5000 11.5000 11.5000 11.5000 11.5000 11.5002 11.5048 11.5892 12.1717 11.5892 11.5048 11.5002 11.5000
      11.5000 11.5000 11.5000 11.5000 11.5000 11.5000
  25  10.9000 10.9000 10.9000 10.9000 10.9000 10.9000 10.9000 10.9002 10.9047 10.9883 11.5789 10.9883 10.9047 10.9002 10.9000
      10.9000 10.9000 10.9000 10.9000 10.9000 10.9000
  26  10.3000 10.3000 10.3000 10.3000 10.3000 10.3000 10.3000 10.3002 10.3047 10.3882 10.9872 10.3882 10.3047 10.3002 10.3000
      10.3000 10.3000 10.3000 10.3000 10.3000 10.3000
  27   9.7000  9.7000  9.7000  9.7000  9.7000  9.7000  9.7000  9.7002  9.7046  9.7870 10.3947  9.7870  9.7046  9.7002  9.7000
       9.7000  9.7000  9.7000  9.7000  9.7000  9.7000
  28   9.1000  9.1000  9.1000  9.1000  9.1000  9.1000  9.1000  9.1002  9.1045  9.1860  9.8032  9.1860  9.1045  9.1002  9.1000
       9.1000  9.1000  9.1000  9.1000  9.1000  9.1000
  29   8.5000  8.5000  8.5000  8.5000  8.5000  8.5000  8.5000  8.5002  8.5044  8.5857  9.2100  8.5857  8.5044  8.5002  8.5000
       8.5000  8.5000  8.5000  8.5000  8.5000  8.5000
  30   7.9000  7.9000  7.9000  7.9000  7.9000  7.9000  7.9000  7.9002  7.9044  7.9858  8.6182  7.9858  7.9044  7.9002  7.9000
       7.9000  7.9000  7.9000  7.9000  7.9000  7.9000
  31   7.3000  7.3000  7.3000  7.3000  7.3000  7.3000  7.3000  7.3002  7.3044  7.3858  8.0268  7.3858  7.3044  7.3002  7.3000
       7.3000  7.3000  7.3000  7.3000  7.3000  7.3000
  32   6.7000  6.7000  6.7000  6.7000  6.7000  6.7000  6.7000  6.7001  6.7043  6.7850  7.4319  6.7850  6.7043  6.7001  6.7000
       6.7000  6.7000  6.7000  6.7000  6.7000  6.7000
  33   6.1000  6.1000  6.1000  6.1000  6.1000  6.1000  6.1000  6.1001  6.1042  6.1846  6.8404  6.1846  6.1042  6.1001  6.1000
       6.1000  6.1000  6.1000  6.1000  6.1000  6.1000
  34   5.5000  5.5000  5.5000  5.5000  5.5000  5.5000  5.5000  5.5001  5.5041  5.5832  6.2475  5.5832  5.5041  5.5001  5.5000
       5.5000  5.5000  5.5000  5.5000  5.5000  5.5000
  35   4.9000  4.9000  4.9000  4.9000  4.9000  4.9000  4.9000  4.9001  4.9040  4.9823  5.6527  4.9823  4.9040  4.9001  4.9000
       4.9000  4.9000  4.9000  4.9000  4.9000  4.9000
  36   4.3000  4.3000  4.3000  4.3000  4.3000  4.3000  4.3000  4.3001  4.3040  4.3820  5.0600  4.3820  4.3040  4.3001  4.3000
       4.3000  4.3000  4.3000  4.3000  4.3000  4.3000
  37   3.7000  3.7000  3.7000  3.7000  3.7000  3.7000  3.7000  3.7001  3.7039  3.7818  4.4680  3.7818  3.7039  3.7001  3.7000
       3.7000  3.7000  3.7000  3.7000  3.7000  3.7000
  38   3.1000  3.1000  3.1000  3.1000  3.1000  3.1000  3.1000  3.1001  3.1039  3.1821  3.8737  3.1821  3.1039  3.1001  3.1000
       3.1000  3.1000  3.1000  3.1000  3.1000  3.1000
  39   2.5000  2.5000  2.5000  2.5000  2.5000  2.5000  2.5000  2.5001  2.5038  2.5807  3.2790  2.5807  2.5038  2.5001  2.5000
       2.5000  2.5000  2.5000  2.5000  2.5000  2.5000
  40   1.9000  1.9000  1.9000  1.9000  1.9000  1.9000  1.9000  1.9001  1.9034  1.9751  2.6664  1.9751  1.9034  1.9001  1.9000
       1.9000  1.9000  1.9000  1.9000  1.9000  1.9000
  41   1.3000  1.3000  1.3000  1.3000  1.3000  1.3000  1.3000  1.3000  1.3000  1.3000  1.3000  1.3000  1.3000  1.3000  1.3000
       1.3000  1.3000  1.3000  1.3000  1.3000  1.3000
1
          DRAWDOWN IN LAYER   1 AT END OF TIME STEP  32 IN STRESS PERIOD    1
  ---------------------------------------------------------------------------

           1       2       3       4       5       6       7       8       9      10      11      12      13      14      15
          16      17      18      19      20      21
 ...........................................................................................................................
   1  -0.2175 -0.1512 -0.0213 -0.0018 -0.0001  0.0000  0.0000  0.0000  0.0000  0.0000  0.0000  0.0000  0.0000  0.0000  0.0000
       0.0000 -0.0001 -0.0018 -0.0213 -0.1512 -0.2175
   2  -0.1512 -0.2999 -0.1452 -0.0199 -0.0017 -0.0001  0.0000  0.0000  0.0000  0.0000  0.0000  0.0000  0.0000  0.0000  0.0000
      -0.0001 -0.0017 -0.0199 -0.1452 -0.2999 -0.1512
   3  -0.0213 -0.1452 -0.3345 -0.1474 -0.0197 -0.0016 -0.0001  0.0000  0.0000  0.0000  0.0000  0.0000  0.0000  0.0000 -0.0001
      -0.0016 -0.0197 -0.1474 -0.3345 -0.1452 -0.0213
   4  -0.0018 -0.0199 -0.1474 -0.3629 -0.1487 -0.0194 -0.0016 -0.0001  0.0000  0.0000  0.0000  0.0000  0.0000 -0.0001 -0.0016
      -0.0194 -0.1487 -0.3629 -0.1474 -0.0199 -0.0018
   5  -0.0001 -0.0017 -0.0197 -0.1487 -0.3876 -0.1493 -0.0190 -0.0015 -0.0001  0.0000  0.0000  0.0000 -0.0001 -0.0015 -0.0190
      -0.1493 -0.3876 -0.1487 -0.0197 -0.0017 -0.0001
   6   0.0000 -0.0001 -0.0016 -0.0194 -0.1493 -0.4093 -0.1489 -0.0186 -0.0015 -0.0001  0.0000 -0.0001 -0.0015 -0.0186 -0.1489
      -0.4093 -0.1493 -0.0194 -0.0016 -0.0001  0.0000
   7   0.0000  0.0000 -0.0001 -0.0016 -0.0190 -0.1489 -0.4305 -0.1486 -0.0183 -0.0014 -0.0002 -0.0014 -0.0183 -0.1486 -0.4305
      -0.1489 -0.0190 -0.0016 -0.0001  0.0000  0.0000
   8   0.0000  0.0000  0.0000 -0.0001 -0.0015 -0.0186 -0.1486 -0.4484 -0.1492 -0.0181 -0.0027 -0.0181 -0.1492 -0.4484 -0.1486
      -0.0186 -0.0015 -0.0001  0.0000  0.0000  0.0000
   9   0.0000  0.0000  0.0000  0.0000 -0.0001 -0.0015 -0.0183 -0.1492 -0.4665 -0.1501 -0.0317 -0.1501 -0.4665 -0.1492 -0.0183
      -0.0015 -0.0001  0.0000  0.0000  0.0000  0.0000
  10   0.0000  0.0000  0.0000  0.0000  0.0000 -0.0001 -0.0014 -0.0181 -0.1496 -0.4852 -0.2289 -0.4852 -0.1496 -0.0181 -0.0014
      -0.0001  0.0000  0.0000  0.0000  0.0000  0.0000
  11   0.0000  0.0000  0.0000  0.0000  0.0000  0.0000 -0.0001 -0.0015 -0.0187 -0.1597 -0.4729 -0.1597 -0.0187 -0.0015 -0.0001
       0.0000  0.0000  0.0000  0.0000  0.0000  0.0000
  12   0.0000  0.0000  0.0000  0.0000  0.0000  0.0000  0.0000 -0.0003 -0.0063 -0.0972 -0.5588 -0.0972 -0.0063 -0.0003  0.0000
       0.0000  0.0000  0.0000  0.0000  0.0000  0.0000
  13   0.0000  0.0000  0.0000  0.0000  0.0000  0.0000  0.0000 -0.0002 -0.0055 -0.0924 -0.5695 -0.0924 -0.0055 -0.0002  0.0000
       0.0000  0.0000  0.0000  0.0000  0.0000  0.0000
  14   0.0000  0.0000  0.0000  0.0000  0.0000  0.0000  0.0000 -0.0002 -0.0054 -0.0917 -0.5805 -0.0917 -0.0054 -0.0002  0.0000
       0.0000  0.0000  0.0000  0.0000  0.0000  0.0000
  15   0.0000  0.0000  0.0000  0.0000  0.0000  0.0000  0.0000 -0.0002 -0.0054 -0.0915 -0.5895 -0.0915 -0.0054 -0.0002  0.0000
       0.0000  0.0000  0.0000  0.0000  0.0000  0.0000
  16   0.0000  0.0000  0.0000  0.0000  0.0000  0.0000  0.0000 -0.0002 -0.0053 -0.0915 -0.5979 -0.0915 -0.0053 -0.0002  0.0000
       0.0000  0.0000  0.0000  0.0000  0.0000  0.0000
  17   0.0000  0.0000  0.0000  0.0000  0.0000  0.0000  0.0000 -0.0002 -0.0053 -0.0918 -0.6091 -0.0918 -0.0053 -0.0002  0.0000
       0.0000  0.0000  0.0000  0.0000  0.0000  0.0000
  18   0.0000  0.0000  0.0000  0.0000  0.0000  0.0000  0.0000 -0.0002 -0.0052 -0.0909 -0.6190 -0.0909 -0.0052 -0.0002  0.0000
       0.0000  0.0000  0.0000  0.0000  0.0000  0.0000
  19   0.0000  0.0000  0.0000  0.0000  0.0000  0.0000  0.0000 -0.0002 -0.0051 -0.0908 -0.6267 -0.0908 -0.0051 -0.0002  0.0000
       0.0000  0.0000  0.0000  0.0000  0.0000  0.0000
  20   0.0000  0.0000  0.0000  0.0000  0.0000  0.0000  0.0000 -0.0002 -0.0050 -0.0900 -0.6365 -0.0900 -0.0050 -0.0002  0.0000
       0.0000  0.0000  0.0000  0.0000  0.0000  0.0000
  21   0.0000  0.0000  0.0000  0.0000  0.0000  0.0000  0.0000 -0.0002 -0.0049 -0.0892 -0.6458 -0.0892 -0.0049 -0.0002  0.0000
       0.0000  0.0000  0.0000  0.0000  0.0000  0.0000
  22   0.0000  0.0000  0.0000  0.0000  0.0000  0.0000  0.0000 -0.0002 -0.0049 -0.0888 -0.6532 -0.0888 -0.0049 -0.0002  0.0000
       0.0000  0.0000  0.0000  0.0000  0.0000  0.0000
  23   0.0000  0.0000  0.0000  0.0000  0.0000  0.0000  0.0000 -0.0002 -0.0049 -0.0891 -0.6625 -0.0891 -0.0049 -0.0002  0.0000
       0.0000  0.0000  0.0000  0.0000  0.0000  0.0000
  24   0.0000  0.0000  0.0000  0.0000  0.0000  0.0000  0.0000 -0.0002 -0.0048 -0.0892 -0.6717 -0.0892 -0.0048 -0.0002  0.0000
       0.0000  0.0000  0.0000  0.0000  0.0000  0.0000
  25   0.0000  0.0000  0.0000  0.0000  0.0000  0.0000  0.0000 -0.0002 -0.0047 -0.0883 -0.6789 -0.0883 -0.0047 -0.0002  0.0000
       0.0000  0.0000  0.0000  0.0000  0.0000  0.0000
  26   0.0000  0.0000  0.0000  0.0000  0.0000  0.0000  0.0000 -0.0002 -0.0047 -0.0882 -0.6872 -0.0882 -0.0047 -0.0002  0.0000
       0.0000  0.0000  0.0000  0.0000  0.0000  0.0000
  27   0.0000  0.0000  0.0000  0.0000  0.0000  0.0000  0.0000 -0.0002 -0.0046 -0.0870 -0.6947 -0.0870 -0.0046 -0.0002  0.0000
       0.0000  0.0000  0.0000  0.0000  0.0000  0.0000
  28   0.0000  0.0000  0.0000  0.0000  0.0000  0.0000  0.0000 -0.0002 -0.0045 -0.0860 -0.7032 -0.0860 -0.0045 -0.0002  0.0000
       0.0000  0.0000  0.0000  0.0000  0.0000  0.0000
  29   0.0000  0.0000  0.0000  0.0000  0.0000  0.0000  0.0000 -0.0002 -0.0044 -0.0857 -0.7100 -0.0857 -0.0044 -0.0002  0.0000
       0.0000  0.0000  0.0000  0.0000  0.0000  0.0000
  30   0.0000  0.0000  0.0000  0.0000  0.0000  0.0000  0.0000 -0.0002 -0.0044 -0.0858 -0.7182 -0.0858 -0.0044 -0.0002  0.0000
       0.0000  0.0000  0.0000  0.0000  0.0000  0.0000
  31   0.0000  0.0000  0.0000  0.0000  0.0000  0.0000  0.0000 -0.0002 -0.0044 -0.0858 -0.7268 -0.0858 -0.0044 -0.0002  0.0000
       0.0000  0.0000  0.0000  0.0000  0.0000  0.0000
  32   0.0000  0.0000  0.0000  0.0000  0.0000  0.0000  0.0000 -0.0001 -0.0043 -0.0850 -0.7319 -0.0850 -0.0043 -0.0001  0.0000
       0.0000  0.0000  0.0000  0.0000  0.0000  0.0000
  33   0.0000  0.0000  0.0000  0.0000  0.0000  0.0000  0.0000 -0.0001 -0.0042 -0.0846 -0.7404 -0.0846 -0.0042 -0.0001  0.0000
       0.0000  0.0000  0.0000  0.0000  0.0000  0.0000
  34   0.0000  0.0000  0.0000  0.0000  0.0000  0.0000  0.0000 -0.0001 -0.0041 -0.0832 -0.7475 -0.0832 -0.0041 -0.0001  0.0000
       0.0000  0.0000  0.0000  0.0000  0.0000  0.0000
  35   0.0000  0.0000  0.0000  0.0000  0.0000  0.0000  0.0000 -0.0001 -0.0040 -0.0823 -0.7527 -0.0823 -0.0040 -0.0001  0.0000
       0.0000  0.0000  0.0000  0.0000  0.0000  0.0000
  36   0.0000  0.0000  0.0000  0.0000  0.0000  0.0000  0.0000 -0.0001 -0.0040 -0.0820 -0.7600 -0.0820 -0.0040 -0.0001  0.0000
       0.0000  0.0000  0.0000  0.0000  0.0000  0.0000
  37   0.0000  0.0000  0.0000  0.0000  0.0000  0.0000  0.0000 -0.0001 -0.0039 -0.0818 -0.7680 -0.0818 -0.0039 -0.0001  0.0000
       0.0000  0.0000  0.0000  0.0000  0.0000  0.0000
  38   0.0000  0.0000  0.0000  0.0000  0.0000  0.0000  0.0000 -0.0001 -0.0039 -0.0821 -0.7737 -0.0821 -0.0039 -0.0001  0.0000
       0.0000  0.0000  0.0000  0.0000  0.0000  0.0000
  39   0.0000  0.0000  0.0000  0.0000  0.0000  0.0000  0.0000 -0.0001 -0.0038 -0.0807 -0.7790 -0.0807 -0.0038 -0.0001  0.0000
       0.0000  0.0000  0.0000  0.0000  0.0000  0.0000
  40   0.0000  0.0000  0.0000  0.0000  0.0000  0.0000  0.0000 -0.0001 -0.0034 -0.0751 -0.7664 -0.0751 -0.0034 -0.0001  0.0000
       0.0000  0.0000  0.0000  0.0000  0.0000  0.0000
  41   0.0000  0.0000  0.0000  0.0000  0.0000  0.0000  0.0000  0.0000  0.0000  0.0000  0.0000  0.0000  0.0000  0.0000  0.0000
       0.0000  0.0000  0.0000  0.0000  0.0000  0.0000
1
  VOLUMETRIC BUDGET FOR ENTIRE MODEL AT END OF TIME STEP 32 IN STRESS PERIOD   1
  ------------------------------------------------------------------------------

     CUMULATIVE VOLUMES      L**3       RATES FOR THIS TIME STEP      L**3/T
     ------------------                 ------------------------

           IN:                                      IN:
           ---                                      ---
             STORAGE =     1768812.5000               STORAGE =     2750595.7500
       CONSTANT HEAD =           0.0000         CONSTANT HEAD =           0.0000
               WELLS =       84004.2266                 WELLS =      126000.0000
              DAFLOW =     3365866.2500                DAFLOW =           0.0000

            TOTAL IN =     5218683.0000              TOTAL IN =     2876595.7500

          OUT:                                     OUT:
          ----                                     ----
             STORAGE =     3763716.2500               STORAGE =      535954.6875
       CONSTANT HEAD =       88697.2031         CONSTANT HEAD =      135236.8594
               WELLS =           0.0000                 WELLS =           0.0000
              DAFLOW =     1366809.0000                DAFLOW =     2205917.2500

           TOTAL OUT =     5219222.5000             TOTAL OUT =     2877108.7500

            IN - OUT =        -539.5000              IN - OUT =        -513.0000

 PERCENT DISCREPANCY =          -0.01     PERCENT DISCREPANCY =          -0.02






          TIME SUMMARY AT END OF TIME STEP  32 IN STRESS PERIOD    1
                    SECONDS     MINUTES      HOURS       DAYS        YEARS
                    -----------------------------------------------------------
   TIME STEP LENGTH  1800.1      30.002     0.50003     2.08344E-02 5.70414E-05
 STRESS PERIOD TIME  57603.      960.05      16.001     0.66670     1.82533E-03
         TOTAL TIME  57603.      960.05      16.001     0.66670     1.82533E-03
1
