 LISTING FILE: ibs.lst
                         UNIT   6

 OPENING ../data/ibs.bas
 FILE TYPE:BAS   UNIT   5

 OPENING ../data/ibs.bcf
 FILE TYPE:BCF   UNIT   7

 OPENING ../data/ibs.sip
 FILE TYPE:SIP   UNIT   9

 OPENING ../data/ibs.oc
 FILE TYPE:OC   UNIT  11

 OPENING ../data/ibs.ibs
 FILE TYPE:IBS   UNIT  13
1                                 MODFLOW
      U.S. GEOLOGICAL SURVEY MODULAR FINITE-DIFFERENCE GROUND-WATER FLOW MODEL

 MODULAR MODEL STORAGE-DEPLETION TEST PROBLEM     --TESTS CALCULATION OF ULTIMATE
 COMPACTION OF INTERBEDS                                                         
    2 LAYERS        10 ROWS        12 COLUMNS
   3 STRESS PERIOD(S) IN SIMULATION
 MODEL TIME UNIT IS DAYS

 BAS5 -- BASIC MODEL PACKAGE, VERSION 5, 1/1/95 INPUT READ FROM UNIT  5
 ARRAYS RHS AND BUFF WILL SHARE MEMORY
 INITIAL HEAD WILL BE KEPT THROUGHOUT THE SIMULATION
       2310 ELEMENTS IN X ARRAY ARE USED BY BAS
       2310 ELEMENTS OF X ARRAY USED OUT OF    1500000

 BCF5 -- BLOCK-CENTERED FLOW PACKAGE, VERSION 5, 9/1/93 INPUT READ FROM UNIT  7
 TRANSIENT SIMULATION
 HEAD AT CELLS THAT CONVERT TO DRY=  0.10000E+31
 WETTING CAPABILITY IS NOT ACTIVE
      LAYER  LAYER-TYPE CODE     INTERBLOCK T
      --------------------------------------------
         1            0          0 -- HARMONIC    
         2            0          0 -- HARMONIC    
        242 ELEMENTS IN X ARRAY ARE USED BY BCF
       2552 ELEMENTS OF X ARRAY USED OUT OF    1500000

 SIP5 -- STRONGLY IMPLICIT PROCEDURE SOLUTION PACKAGE
                    VERSION 5, 9/1/93 INPUT READ FROM UNIT  9
 MAXIMUM OF  50 ITERATIONS ALLOWED FOR CLOSURE
  5 ITERATION PARAMETERS
       1165 ELEMENTS IN X ARRAY ARE USED BY SIP
       3717 ELEMENTS OF X ARRAY USED OUT OF    1500000
0IBS1 -- INTERBED STORAGE PACKAGE, VERSION 1, 06/07/96 INPUT READ FROM UNIT 13
 INTERBED STORAGE IN LAYER(S)  1
      480 ELEMENTS OF X ARRAY USED FOR INTERBED STORAGE
     4197 ELEMENTS OF X ARRAY USED OUT OF 1500000
1
 MODULAR MODEL STORAGE-DEPLETION TEST PROBLEM     --TESTS CALCULATION OF ULTIMATE
 COMPACTION OF INTERBEDS                                                         



                     BOUNDARY ARRAY FOR LAYER   1
 READING ON UNIT   5 WITH FORMAT: (20I3)              

                1           2           3           4           5           6           7           8           9          10
               11          12
 ............................................................................................................................
   1           -1           1           1           1           1           1           1           1           1           1
                1          -1
   2           -1           1           1           1           1           1           1           1           1           1
                1          -1
   3           -1           1           1           1           1           1           1           1           1           1
                1          -1
   4           -1           1           1           1           1           1           1           1           1           1
                1          -1
   5           -1           1           1           1           1           1           1           1           1           1
                1          -1
   6           -1           1           1           1           1           1           1           1           1           1
                1          -1
   7           -1           1           1           1           1           1           1           1           1           1
                1          -1
   8           -1           1           1           1           1           1           1           1           1           1
                1          -1
   9           -1           1           1           1           1           1           1           1           1           1
                1          -1
  10           -1           1           1           1           1           1           1           1           1           1
                1          -1



                     BOUNDARY ARRAY FOR LAYER   2
 READING ON UNIT   5 WITH FORMAT: (20I3)              

                1           2           3           4           5           6           7           8           9          10
               11          12
 ............................................................................................................................
   1           -1           1           1           1           1           1           1           1           1           1
                1          -1
   2           -1           1           1           1           1           1           1           1           1           1
                1          -1
   3           -1           1           1           1           1           1           1           1           1           1
                1          -1
   4           -1           1           1           1           1           1           1           1           1           1
                1          -1
   5           -1           1           1           1           1           1           1           1           1           1
                1          -1
   6           -1           1           1           1           1           1           1           1           1           1
                1          -1
   7           -1           1           1           1           1           1           1           1           1           1
                1          -1
   8           -1           1           1           1           1           1           1           1           1           1
                1          -1
   9           -1           1           1           1           1           1           1           1           1           1
                1          -1
  10           -1           1           1           1           1           1           1           1           1           1
                1          -1

 AQUIFER HEAD WILL BE SET TO  444.44     AT ALL NO-FLOW NODES (IBOUND=0).



                       INITIAL HEAD FOR LAYER   1
 READING ON UNIT   5 WITH FORMAT: (18F3.0)            

            1           2           3           4           5           6           7           8           9          10
           11          12
 ........................................................................................................................
   1       0.       11.00       12.00       13.00       14.00       15.00       16.00       17.00       18.00       19.00    
        20.00       11.00    
   2       0.       11.00       12.00       13.00       14.00       15.00       16.00       17.00       18.00       19.00    
        20.00       11.00    
   3       0.       11.00       12.00       13.00       14.00       15.00       16.00       17.00       18.00       19.00    
        20.00       11.00    
   4       0.       11.00       12.00       13.00       14.00       15.00       16.00       17.00       18.00       19.00    
        20.00       11.00    
   5       0.       11.00       12.00       13.00       14.00       15.00       16.00       17.00       18.00       19.00    
        20.00       11.00    
   6       0.       11.00       12.00       13.00       14.00       15.00       16.00       17.00       18.00       19.00    
        20.00       11.00    
   7       0.       11.00       12.00       13.00       14.00       15.00       16.00       17.00       18.00       19.00    
        20.00       11.00    
   8       0.       11.00       12.00       13.00       14.00       15.00       16.00       17.00       18.00       19.00    
        20.00       11.00    
   9       0.       11.00       12.00       13.00       14.00       15.00       16.00       17.00       18.00       19.00    
        20.00       11.00    
  10       0.       11.00       12.00       13.00       14.00       15.00       16.00       17.00       18.00       19.00    
        20.00       11.00    



                       INITIAL HEAD FOR LAYER   2
 READING ON UNIT   5 WITH FORMAT: (18F3.0)            

            1           2           3           4           5           6           7           8           9          10
           11          12
 ........................................................................................................................
   1       0.       11.00       12.00       13.00       14.00       15.00       16.00       17.00       18.00       19.00    
        20.00       11.00    
   2       0.       11.00       12.00       13.00       14.00       15.00       16.00       17.00       18.00       19.00    
        20.00       11.00    
   3       0.       11.00       12.00       13.00       14.00       15.00       16.00       17.00       18.00       19.00    
        20.00       11.00    
   4       0.       11.00       12.00       13.00       14.00       15.00       16.00       17.00       18.00       19.00    
        20.00       11.00    
   5       0.       11.00       12.00       13.00       14.00       15.00       16.00       17.00       18.00       19.00    
        20.00       11.00    
   6       0.       11.00       12.00       13.00       14.00       15.00       16.00       17.00       18.00       19.00    
        20.00       11.00    
   7       0.       11.00       12.00       13.00       14.00       15.00       16.00       17.00       18.00       19.00    
        20.00       11.00    
   8       0.       11.00       12.00       13.00       14.00       15.00       16.00       17.00       18.00       19.00    
        20.00       11.00    
   9       0.       11.00       12.00       13.00       14.00       15.00       16.00       17.00       18.00       19.00    
        20.00       11.00    
  10       0.       11.00       12.00       13.00       14.00       15.00       16.00       17.00       18.00       19.00    
        20.00       11.00    

 OUTPUT CONTROL IS SPECIFIED EVERY TIME STEP
 HEAD PRINT FORMAT CODE IS   5    DRAWDOWN PRINT FORMAT CODE IS   5
 HEADS WILL BE SAVED ON UNIT   0    DRAWDOWNS WILL BE SAVED ON UNIT   0

 COLUMN TO ROW ANISOTROPY =   1.000000    

                     DELR =   1000.000    

                     DELC =   1000.000    

     PRIMARY STORAGE COEF =  0.1000000E-03 FOR LAYER   1

     TRANSMIS. ALONG ROWS =   1000.000     FOR LAYER   1

 VERT HYD COND /THICKNESS =  0.1000000E-05 FOR LAYER   1

     PRIMARY STORAGE COEF =  0.1000000E-03 FOR LAYER   2

     TRANSMIS. ALONG ROWS =   1000.000     FOR LAYER   2



          SOLUTION BY THE STRONGLY IMPLICIT PROCEDURE
          -------------------------------------------
 MAXIMUM ITERATIONS ALLOWED FOR CLOSURE =       50
                 ACCELERATION PARAMETER =     1.0000    
      HEAD CHANGE CRITERION FOR CLOSURE =    0.10000E-04
      SIP HEAD CHANGE PRINTOUT INTERVAL =        1

     CALCULATE ITERATION PARAMETERS FROM MODEL CALCULATED WSEED



              PRECONSOLIDATION HEAD FOR LAYER   1
 READING ON UNIT  13 WITH FORMAT: (12F3.0)            

            1           2           3           4           5           6           7           8           9          10
           11          12
 ........................................................................................................................
   1    5.000       6.000       7.000       8.000       9.000       10.00       11.00       12.00       13.00       14.00    
        15.00       16.00    
   2    5.000       6.000       7.000       8.000       9.000       10.00       11.00       12.00       13.00       14.00    
        15.00       16.00    
   3    5.000       6.000       7.000       8.000       9.000       10.00       11.00       12.00       13.00       14.00    
        15.00       16.00    
   4    5.000       6.000       7.000       8.000       9.000       10.00       11.00       12.00       13.00       14.00    
        15.00       16.00    
   5    5.000       6.000       7.000       8.000       9.000       10.00       11.00       12.00       13.00       14.00    
        15.00       16.00    
   6    5.000       6.000       7.000       8.000       9.000       10.00       11.00       12.00       13.00       14.00    
        15.00       16.00    
   7    5.000       6.000       7.000       8.000       9.000       10.00       11.00       12.00       13.00       14.00    
        15.00       16.00    
   8    5.000       6.000       7.000       8.000       9.000       10.00       11.00       12.00       13.00       14.00    
        15.00       16.00    
   9    5.000       6.000       7.000       8.000       9.000       10.00       11.00       12.00       13.00       14.00    
        15.00       16.00    
  10    5.000       6.000       7.000       8.000       9.000       10.00       11.00       12.00       13.00       14.00    
        15.00       16.00    

 ELASTIC INTERBED STORAGE =  0.1000000E-03 FOR LAYER   1

  VIRGIN INTERBED STORAGE =  0.1000000E-02 FOR LAYER   1

      STARTING COMPACTION =         0.     FOR LAYER   1
1
                            STRESS PERIOD NO.   1, LENGTH =   1000.000    
                            ----------------------------------------------

                              NUMBER OF TIME STEPS =    10

                               MULTIPLIER FOR DELT =     1.500

                            INITIAL TIME STEP SIZE =   8.823783    

 AVERAGE SEED = 0.00061654
 MINIMUM SEED = 0.00061654

     5 ITERATION PARAMETERS CALCULATED FROM AVERAGE SEED:

  0.000000E+00 0.842424E+00 0.975170E+00 0.996087E+00 0.999383E+00

    15 ITERATIONS FOR TIME STEP   1 IN STRESS PERIOD  1

 MAXIMUM HEAD CHANGE FOR EACH ITERATION:

    HEAD CHANGE   HEAD CHANGE   HEAD CHANGE   HEAD CHANGE   HEAD CHANGE
  LAYER,ROW,COL LAYER,ROW,COL LAYER,ROW,COL LAYER,ROW,COL LAYER,ROW,COL
 ----------------------------------------------------------------------
     -6.261        -3.498        -4.478        -1.528       -0.9372E-01
  (  2, 10,  2) (  2,  1,  4) (  2, 10,  6) (  2,  1,  7) (  2, 10,  9)
    -0.1287E-01    0.1572E-01    0.7545E-02    0.1865E-02    0.4866E-03
  (  2,  1, 11) (  2,  9,  7) (  2, 10,  6) (  2,  4,  7) (  2,  5,  5)
     0.1398E-03   -0.1231E-03   -0.6299E-04   -0.1349E-04   -0.5180E-05
  (  2, 10,  9) (  2,  2,  7) (  2,  1,  6) (  2,  4,  4) (  2,  8,  6)


 HEAD/DRAWDOWN PRINTOUT FLAG = 0     TOTAL BUDGET PRINTOUT FLAG = 0
 CELL-BY-CELL FLOW TERM FLAG = 0
 REUSING PREVIOUS VALUES OF IOFLG
    11 ITERATIONS FOR TIME STEP   2 IN STRESS PERIOD  1

 MAXIMUM HEAD CHANGE FOR EACH ITERATION:

    HEAD CHANGE   HEAD CHANGE   HEAD CHANGE   HEAD CHANGE   HEAD CHANGE
  LAYER,ROW,COL LAYER,ROW,COL LAYER,ROW,COL LAYER,ROW,COL LAYER,ROW,COL
 ----------------------------------------------------------------------
    -0.6261       -0.8487       -0.6972       -0.2087       -0.1250E-01
  (  1, 10,  3) (  1,  2,  6) (  1,  6,  7) (  2,  1,  7) (  2, 10,  9)
    -0.2047E-02    0.2251E-02    0.1303E-02    0.3824E-03   -0.3726E-04
  (  2,  5, 10) (  2,  6,  5) (  2,  8,  5) (  2, 10,  7) (  2,  9,  5)
     0.7807E-05
  (  2,  6,  6)


 HEAD/DRAWDOWN PRINTOUT FLAG = 0     TOTAL BUDGET PRINTOUT FLAG = 0
 CELL-BY-CELL FLOW TERM FLAG = 0
 REUSING PREVIOUS VALUES OF IOFLG
    11 ITERATIONS FOR TIME STEP   3 IN STRESS PERIOD  1

 MAXIMUM HEAD CHANGE FOR EACH ITERATION:

    HEAD CHANGE   HEAD CHANGE   HEAD CHANGE   HEAD CHANGE   HEAD CHANGE
  LAYER,ROW,COL LAYER,ROW,COL LAYER,ROW,COL LAYER,ROW,COL LAYER,ROW,COL
 ----------------------------------------------------------------------
    -0.3537       -0.5255       -0.4775       -0.1015        0.8743E-02
  (  1, 10,  7) (  1,  2,  7) (  1,  6,  7) (  1,  1,  8) (  1,  2,  7)
     0.1189E-02    0.1024E-02    0.4954E-03    0.9925E-04   -0.1696E-04
  (  1,  6,  5) (  1,  6,  5) (  1,  6,  5) (  1, 10,  8) (  1,  2,  8)
     0.4163E-05
  (  1,  5,  6)


 HEAD/DRAWDOWN PRINTOUT FLAG = 0     TOTAL BUDGET PRINTOUT FLAG = 0
 CELL-BY-CELL FLOW TERM FLAG = 0
 REUSING PREVIOUS VALUES OF IOFLG
    11 ITERATIONS FOR TIME STEP   4 IN STRESS PERIOD  1

 MAXIMUM HEAD CHANGE FOR EACH ITERATION:

    HEAD CHANGE   HEAD CHANGE   HEAD CHANGE   HEAD CHANGE   HEAD CHANGE
  LAYER,ROW,COL LAYER,ROW,COL LAYER,ROW,COL LAYER,ROW,COL LAYER,ROW,COL
 ----------------------------------------------------------------------
    -0.1500       -0.2364       -0.2395       -0.6023E-01    0.4875E-02
  (  1, 10,  7) (  1,  2,  6) (  1,  7,  7) (  1,  1,  8) (  1,  2,  7)
     0.6439E-03    0.5950E-03    0.3107E-03    0.7171E-04   -0.1071E-04
  (  1,  6,  5) (  1,  6,  5) (  1,  6,  5) (  1, 10,  7) (  1,  2,  8)
     0.2817E-05
  (  1,  5,  6)


 HEAD/DRAWDOWN PRINTOUT FLAG = 0     TOTAL BUDGET PRINTOUT FLAG = 0
 CELL-BY-CELL FLOW TERM FLAG = 0
 REUSING PREVIOUS VALUES OF IOFLG
    10 ITERATIONS FOR TIME STEP   5 IN STRESS PERIOD  1

 MAXIMUM HEAD CHANGE FOR EACH ITERATION:

    HEAD CHANGE   HEAD CHANGE   HEAD CHANGE   HEAD CHANGE   HEAD CHANGE
  LAYER,ROW,COL LAYER,ROW,COL LAYER,ROW,COL LAYER,ROW,COL LAYER,ROW,COL
 ----------------------------------------------------------------------
    -0.4814E-01   -0.7821E-01   -0.8682E-01   -0.2457E-01    0.1848E-02
  (  1, 10,  7) (  1,  2,  6) (  1,  7,  7) (  1,  1,  8) (  1,  2,  7)
    -0.2653E-03    0.2573E-03    0.1415E-03    0.3714E-04   -0.4396E-05
  (  1,  5, 10) (  1,  6,  5) (  1,  7,  5) (  1, 10,  7) (  1,  8,  4)


 HEAD/DRAWDOWN PRINTOUT FLAG = 0     TOTAL BUDGET PRINTOUT FLAG = 0
 CELL-BY-CELL FLOW TERM FLAG = 0
 REUSING PREVIOUS VALUES OF IOFLG
    10 ITERATIONS FOR TIME STEP   6 IN STRESS PERIOD  1

 MAXIMUM HEAD CHANGE FOR EACH ITERATION:

    HEAD CHANGE   HEAD CHANGE   HEAD CHANGE   HEAD CHANGE   HEAD CHANGE
  LAYER,ROW,COL LAYER,ROW,COL LAYER,ROW,COL LAYER,ROW,COL LAYER,ROW,COL
 ----------------------------------------------------------------------
    -0.1125E-01   -0.1888E-01   -0.2230E-01   -0.6898E-02    0.4954E-03
  (  1, 10,  7) (  1,  2,  6) (  1,  7,  7) (  1,  1,  8) (  1,  2,  7)
    -0.7460E-04    0.7379E-04    0.4081E-04    0.1130E-04   -0.1321E-05
  (  1,  5, 10) (  1,  6,  5) (  1,  7,  5) (  1, 10,  7) (  1,  8,  4)


 HEAD/DRAWDOWN PRINTOUT FLAG = 0     TOTAL BUDGET PRINTOUT FLAG = 0
 CELL-BY-CELL FLOW TERM FLAG = 0
 REUSING PREVIOUS VALUES OF IOFLG
     8 ITERATIONS FOR TIME STEP   7 IN STRESS PERIOD  1

 MAXIMUM HEAD CHANGE FOR EACH ITERATION:

    HEAD CHANGE   HEAD CHANGE   HEAD CHANGE   HEAD CHANGE   HEAD CHANGE
  LAYER,ROW,COL LAYER,ROW,COL LAYER,ROW,COL LAYER,ROW,COL LAYER,ROW,COL
 ----------------------------------------------------------------------
    -0.1877E-02   -0.3240E-02   -0.4012E-02   -0.1319E-02    0.8889E-04
  (  1, 10,  7) (  1,  2,  6) (  1, 10,  7) (  1,  1,  8) (  1,  2,  7)
    -0.1403E-04    0.1405E-04    0.7893E-05
  (  1,  5, 10) (  1,  6,  5) (  1,  7,  5)


 HEAD/DRAWDOWN PRINTOUT FLAG = 0     TOTAL BUDGET PRINTOUT FLAG = 0
 CELL-BY-CELL FLOW TERM FLAG = 0
 REUSING PREVIOUS VALUES OF IOFLG
     6 ITERATIONS FOR TIME STEP   8 IN STRESS PERIOD  1

 MAXIMUM HEAD CHANGE FOR EACH ITERATION:

    HEAD CHANGE   HEAD CHANGE   HEAD CHANGE   HEAD CHANGE   HEAD CHANGE
  LAYER,ROW,COL LAYER,ROW,COL LAYER,ROW,COL LAYER,ROW,COL LAYER,ROW,COL
 ----------------------------------------------------------------------
    -0.2209E-03   -0.3888E-03   -0.4966E-03   -0.1703E-03    0.1113E-04
  (  1, 10,  7) (  1,  2,  6) (  1, 10,  7) (  1,  1,  7) (  1,  2,  7)
    -0.1812E-05
  (  1,  5, 10)


 HEAD/DRAWDOWN PRINTOUT FLAG = 0     TOTAL BUDGET PRINTOUT FLAG = 0
 CELL-BY-CELL FLOW TERM FLAG = 0
 REUSING PREVIOUS VALUES OF IOFLG
     5 ITERATIONS FOR TIME STEP   9 IN STRESS PERIOD  1

 MAXIMUM HEAD CHANGE FOR EACH ITERATION:

    HEAD CHANGE   HEAD CHANGE   HEAD CHANGE   HEAD CHANGE   HEAD CHANGE
  LAYER,ROW,COL LAYER,ROW,COL LAYER,ROW,COL LAYER,ROW,COL LAYER,ROW,COL
 ----------------------------------------------------------------------
    -0.1765E-04   -0.3200E-04   -0.4121E-04   -0.1459E-04    0.9649E-06
  (  1, 10,  7) (  1,  2,  7) (  1,  6,  7) (  1,  1,  7) (  1,  2,  7)


 HEAD/DRAWDOWN PRINTOUT FLAG = 0     TOTAL BUDGET PRINTOUT FLAG = 0
 CELL-BY-CELL FLOW TERM FLAG = 0
 REUSING PREVIOUS VALUES OF IOFLG
     1 ITERATIONS FOR TIME STEP  10 IN STRESS PERIOD  1

 MAXIMUM HEAD CHANGE FOR EACH ITERATION:

    HEAD CHANGE   HEAD CHANGE   HEAD CHANGE   HEAD CHANGE   HEAD CHANGE
  LAYER,ROW,COL LAYER,ROW,COL LAYER,ROW,COL LAYER,ROW,COL LAYER,ROW,COL
 ----------------------------------------------------------------------
    -0.9374E-06
  (  1, 10,  7)


 HEAD/DRAWDOWN PRINTOUT FLAG = 1     TOTAL BUDGET PRINTOUT FLAG = 1
 CELL-BY-CELL FLOW TERM FLAG = 0

 OUTPUT FLAGS FOR ALL LAYERS ARE THE SAME:
   HEAD    DRAWDOWN  HEAD  DRAWDOWN
 PRINTOUT  PRINTOUT  SAVE    SAVE
 ----------------------------------
     1         0       0       0
1
              HEAD IN LAYER  1 AT END OF TIME STEP 10 IN STRESS PERIOD  1
  -----------------------------------------------------------------------

           1       2       3       4       5       6       7       8       9      10      11      12
 ...................................................................................................
   1    0.000   1.000   2.000   3.000   4.000   5.000   6.000   7.000   8.000   9.000  10.000  11.000
   2    0.000   1.000   2.000   3.000   4.000   5.000   6.000   7.000   8.000   9.000  10.000  11.000
   3    0.000   1.000   2.000   3.000   4.000   5.000   6.000   7.000   8.000   9.000  10.000  11.000
   4    0.000   1.000   2.000   3.000   4.000   5.000   6.000   7.000   8.000   9.000  10.000  11.000
   5    0.000   1.000   2.000   3.000   4.000   5.000   6.000   7.000   8.000   9.000  10.000  11.000
   6    0.000   1.000   2.000   3.000   4.000   5.000   6.000   7.000   8.000   9.000  10.000  11.000
   7    0.000   1.000   2.000   3.000   4.000   5.000   6.000   7.000   8.000   9.000  10.000  11.000
   8    0.000   1.000   2.000   3.000   4.000   5.000   6.000   7.000   8.000   9.000  10.000  11.000
   9    0.000   1.000   2.000   3.000   4.000   5.000   6.000   7.000   8.000   9.000  10.000  11.000
  10    0.000   1.000   2.000   3.000   4.000   5.000   6.000   7.000   8.000   9.000  10.000  11.000
1
              HEAD IN LAYER  2 AT END OF TIME STEP 10 IN STRESS PERIOD  1
  -----------------------------------------------------------------------

           1       2       3       4       5       6       7       8       9      10      11      12
 ...................................................................................................
   1    0.000   1.000   2.000   3.000   4.000   5.000   6.000   7.000   8.000   9.000  10.000  11.000
   2    0.000   1.000   2.000   3.000   4.000   5.000   6.000   7.000   8.000   9.000  10.000  11.000
   3    0.000   1.000   2.000   3.000   4.000   5.000   6.000   7.000   8.000   9.000  10.000  11.000
   4    0.000   1.000   2.000   3.000   4.000   5.000   6.000   7.000   8.000   9.000  10.000  11.000
   5    0.000   1.000   2.000   3.000   4.000   5.000   6.000   7.000   8.000   9.000  10.000  11.000
   6    0.000   1.000   2.000   3.000   4.000   5.000   6.000   7.000   8.000   9.000  10.000  11.000
   7    0.000   1.000   2.000   3.000   4.000   5.000   6.000   7.000   8.000   9.000  10.000  11.000
   8    0.000   1.000   2.000   3.000   4.000   5.000   6.000   7.000   8.000   9.000  10.000  11.000
   9    0.000   1.000   2.000   3.000   4.000   5.000   6.000   7.000   8.000   9.000  10.000  11.000
  10    0.000   1.000   2.000   3.000   4.000   5.000   6.000   7.000   8.000   9.000  10.000  11.000
1
  VOLUMETRIC BUDGET FOR ENTIRE MODEL AT END OF TIME STEP 10 IN STRESS PERIOD  1
  -----------------------------------------------------------------------------

     CUMULATIVE VOLUMES      L**3       RATES FOR THIS TIME STEP      L**3/T
     ------------------                 ------------------------

           IN:                                      IN:
           ---                                      ---
             STORAGE =      199999.9219               STORAGE =       1.4603E-05
       CONSTANT HEAD =    19683132.0000         CONSTANT HEAD =       19999.9863
    INTERBED STORAGE =      549999.8125      INTERBED STORAGE =       1.4898E-04

            TOTAL IN =    20433132.0000              TOTAL IN =       19999.9863

          OUT:                                     OUT:
          ----                                     ----
             STORAGE =           0.0000               STORAGE =           0.0000
       CONSTANT HEAD =    20433138.0000         CONSTANT HEAD =       20000.0137
    INTERBED STORAGE =           0.0000      INTERBED STORAGE =           0.0000

           TOTAL OUT =    20433138.0000             TOTAL OUT =       20000.0137

            IN - OUT =          -6.0000              IN - OUT =      -2.7344E-02

 PERCENT DISCREPANCY =           0.00     PERCENT DISCREPANCY =           0.00






          TIME SUMMARY AT END OF TIME STEP 10 IN STRESS PERIOD  1
                    SECONDS     MINUTES      HOURS       DAYS        YEARS
                    -----------------------------------------------------------
   TIME STEP LENGTH 2.93082E+07 4.88471E+05  8141.2      339.22     0.92872    
 STRESS PERIOD TIME 8.64000E+07 1.44000E+06  24000.      1000.0      2.7379    
         TOTAL TIME 8.64000E+07 1.44000E+06  24000.      1000.0      2.7379    
1
1
        SUBSIDENCE IN LAYER  1 AT END OF TIME STEP 10 IN STRESS PERIOD  1
  -----------------------------------------------------------------------

            1           2           3           4           5           6           7           8           9          10
           11          12
 ........................................................................................................................
   1       0.      5.5000E-03  5.5000E-03  5.5000E-03  5.5000E-03  5.5000E-03  5.5000E-03  5.5000E-03  5.5000E-03  5.5000E-03
       5.5000E-03      0.    
   2       0.      5.5000E-03  5.5000E-03  5.5000E-03  5.5000E-03  5.5000E-03  5.5000E-03  5.5000E-03  5.5000E-03  5.5000E-03
       5.5000E-03      0.    
   3       0.      5.5000E-03  5.5000E-03  5.5000E-03  5.5000E-03  5.5000E-03  5.5000E-03  5.5000E-03  5.5000E-03  5.5000E-03
       5.5000E-03      0.    
   4       0.      5.5000E-03  5.5000E-03  5.5000E-03  5.5000E-03  5.5000E-03  5.5000E-03  5.5000E-03  5.5000E-03  5.5000E-03
       5.5000E-03      0.    
   5       0.      5.5000E-03  5.5000E-03  5.5000E-03  5.5000E-03  5.5000E-03  5.5000E-03  5.5000E-03  5.5000E-03  5.5000E-03
       5.5000E-03      0.    
   6       0.      5.5000E-03  5.5000E-03  5.5000E-03  5.5000E-03  5.5000E-03  5.5000E-03  5.5000E-03  5.5000E-03  5.5000E-03
       5.5000E-03      0.    
   7       0.      5.5000E-03  5.5000E-03  5.5000E-03  5.5000E-03  5.5000E-03  5.5000E-03  5.5000E-03  5.5000E-03  5.5000E-03
       5.5000E-03      0.    
   8       0.      5.5000E-03  5.5000E-03  5.5000E-03  5.5000E-03  5.5000E-03  5.5000E-03  5.5000E-03  5.5000E-03  5.5000E-03
       5.5000E-03      0.    
   9       0.      5.5000E-03  5.5000E-03  5.5000E-03  5.5000E-03  5.5000E-03  5.5000E-03  5.5000E-03  5.5000E-03  5.5000E-03
       5.5000E-03      0.    
  10       0.      5.5000E-03  5.5000E-03  5.5000E-03  5.5000E-03  5.5000E-03  5.5000E-03  5.5000E-03  5.5000E-03  5.5000E-03
       5.5000E-03      0.    
1
                            STRESS PERIOD NO.   2, LENGTH =   1000.000    
                            ----------------------------------------------

                              NUMBER OF TIME STEPS =    10

                               MULTIPLIER FOR DELT =     1.500

                            INITIAL TIME STEP SIZE =   8.823783    

     1 ITERATIONS FOR TIME STEP   1 IN STRESS PERIOD  2

 MAXIMUM HEAD CHANGE FOR EACH ITERATION:

    HEAD CHANGE   HEAD CHANGE   HEAD CHANGE   HEAD CHANGE   HEAD CHANGE
  LAYER,ROW,COL LAYER,ROW,COL LAYER,ROW,COL LAYER,ROW,COL LAYER,ROW,COL
 ----------------------------------------------------------------------
    -0.6531E-06
  (  1,  2,  6)


 HEAD/DRAWDOWN PRINTOUT FLAG = 0     TOTAL BUDGET PRINTOUT FLAG = 0
 CELL-BY-CELL FLOW TERM FLAG = 0
 REUSING PREVIOUS VALUES OF IOFLG
     1 ITERATIONS FOR TIME STEP   2 IN STRESS PERIOD  2

 MAXIMUM HEAD CHANGE FOR EACH ITERATION:

    HEAD CHANGE   HEAD CHANGE   HEAD CHANGE   HEAD CHANGE   HEAD CHANGE
  LAYER,ROW,COL LAYER,ROW,COL LAYER,ROW,COL LAYER,ROW,COL LAYER,ROW,COL
 ----------------------------------------------------------------------
    -0.5577E-06
  (  1, 10,  7)


 HEAD/DRAWDOWN PRINTOUT FLAG = 0     TOTAL BUDGET PRINTOUT FLAG = 0
 CELL-BY-CELL FLOW TERM FLAG = 0
 REUSING PREVIOUS VALUES OF IOFLG
     1 ITERATIONS FOR TIME STEP   3 IN STRESS PERIOD  2

 MAXIMUM HEAD CHANGE FOR EACH ITERATION:

    HEAD CHANGE   HEAD CHANGE   HEAD CHANGE   HEAD CHANGE   HEAD CHANGE
  LAYER,ROW,COL LAYER,ROW,COL LAYER,ROW,COL LAYER,ROW,COL LAYER,ROW,COL
 ----------------------------------------------------------------------
    -0.4811E-06
  (  1,  8,  7)


 HEAD/DRAWDOWN PRINTOUT FLAG = 0     TOTAL BUDGET PRINTOUT FLAG = 0
 CELL-BY-CELL FLOW TERM FLAG = 0
 REUSING PREVIOUS VALUES OF IOFLG
     1 ITERATIONS FOR TIME STEP   4 IN STRESS PERIOD  2

 MAXIMUM HEAD CHANGE FOR EACH ITERATION:

    HEAD CHANGE   HEAD CHANGE   HEAD CHANGE   HEAD CHANGE   HEAD CHANGE
  LAYER,ROW,COL LAYER,ROW,COL LAYER,ROW,COL LAYER,ROW,COL LAYER,ROW,COL
 ----------------------------------------------------------------------
    -0.4491E-06
  (  1,  2,  7)


 HEAD/DRAWDOWN PRINTOUT FLAG = 0     TOTAL BUDGET PRINTOUT FLAG = 0
 CELL-BY-CELL FLOW TERM FLAG = 0
 REUSING PREVIOUS VALUES OF IOFLG
     1 ITERATIONS FOR TIME STEP   5 IN STRESS PERIOD  2

 MAXIMUM HEAD CHANGE FOR EACH ITERATION:

    HEAD CHANGE   HEAD CHANGE   HEAD CHANGE   HEAD CHANGE   HEAD CHANGE
  LAYER,ROW,COL LAYER,ROW,COL LAYER,ROW,COL LAYER,ROW,COL LAYER,ROW,COL
 ----------------------------------------------------------------------
    -0.3862E-06
  (  1,  3,  7)


 HEAD/DRAWDOWN PRINTOUT FLAG = 0     TOTAL BUDGET PRINTOUT FLAG = 0
 CELL-BY-CELL FLOW TERM FLAG = 0
 REUSING PREVIOUS VALUES OF IOFLG
     1 ITERATIONS FOR TIME STEP   6 IN STRESS PERIOD  2

 MAXIMUM HEAD CHANGE FOR EACH ITERATION:

    HEAD CHANGE   HEAD CHANGE   HEAD CHANGE   HEAD CHANGE   HEAD CHANGE
  LAYER,ROW,COL LAYER,ROW,COL LAYER,ROW,COL LAYER,ROW,COL LAYER,ROW,COL
 ----------------------------------------------------------------------
    -0.3320E-06
  (  1,  3,  7)


 HEAD/DRAWDOWN PRINTOUT FLAG = 0     TOTAL BUDGET PRINTOUT FLAG = 0
 CELL-BY-CELL FLOW TERM FLAG = 0
 REUSING PREVIOUS VALUES OF IOFLG
     1 ITERATIONS FOR TIME STEP   7 IN STRESS PERIOD  2

 MAXIMUM HEAD CHANGE FOR EACH ITERATION:

    HEAD CHANGE   HEAD CHANGE   HEAD CHANGE   HEAD CHANGE   HEAD CHANGE
  LAYER,ROW,COL LAYER,ROW,COL LAYER,ROW,COL LAYER,ROW,COL LAYER,ROW,COL
 ----------------------------------------------------------------------
    -0.2913E-06
  (  1,  3,  7)


 HEAD/DRAWDOWN PRINTOUT FLAG = 0     TOTAL BUDGET PRINTOUT FLAG = 0
 CELL-BY-CELL FLOW TERM FLAG = 0
 REUSING PREVIOUS VALUES OF IOFLG
     1 ITERATIONS FOR TIME STEP   8 IN STRESS PERIOD  2

 MAXIMUM HEAD CHANGE FOR EACH ITERATION:

    HEAD CHANGE   HEAD CHANGE   HEAD CHANGE   HEAD CHANGE   HEAD CHANGE
  LAYER,ROW,COL LAYER,ROW,COL LAYER,ROW,COL LAYER,ROW,COL LAYER,ROW,COL
 ----------------------------------------------------------------------
    -0.2509E-06
  (  1,  4,  7)


 HEAD/DRAWDOWN PRINTOUT FLAG = 0     TOTAL BUDGET PRINTOUT FLAG = 0
 CELL-BY-CELL FLOW TERM FLAG = 0
 REUSING PREVIOUS VALUES OF IOFLG
     1 ITERATIONS FOR TIME STEP   9 IN STRESS PERIOD  2

 MAXIMUM HEAD CHANGE FOR EACH ITERATION:

    HEAD CHANGE   HEAD CHANGE   HEAD CHANGE   HEAD CHANGE   HEAD CHANGE
  LAYER,ROW,COL LAYER,ROW,COL LAYER,ROW,COL LAYER,ROW,COL LAYER,ROW,COL
 ----------------------------------------------------------------------
    -0.2214E-06
  (  1,  4,  7)


 HEAD/DRAWDOWN PRINTOUT FLAG = 0     TOTAL BUDGET PRINTOUT FLAG = 0
 CELL-BY-CELL FLOW TERM FLAG = 0
 REUSING PREVIOUS VALUES OF IOFLG
     1 ITERATIONS FOR TIME STEP  10 IN STRESS PERIOD  2

 MAXIMUM HEAD CHANGE FOR EACH ITERATION:

    HEAD CHANGE   HEAD CHANGE   HEAD CHANGE   HEAD CHANGE   HEAD CHANGE
  LAYER,ROW,COL LAYER,ROW,COL LAYER,ROW,COL LAYER,ROW,COL LAYER,ROW,COL
 ----------------------------------------------------------------------
    -0.1914E-06
  (  1,  3,  7)


 HEAD/DRAWDOWN PRINTOUT FLAG = 1     TOTAL BUDGET PRINTOUT FLAG = 1
 CELL-BY-CELL FLOW TERM FLAG = 0

 OUTPUT FLAGS FOR ALL LAYERS ARE THE SAME:
   HEAD    DRAWDOWN  HEAD  DRAWDOWN
 PRINTOUT  PRINTOUT  SAVE    SAVE
 ----------------------------------
     1         0       0       0
1
              HEAD IN LAYER  1 AT END OF TIME STEP 10 IN STRESS PERIOD  2
  -----------------------------------------------------------------------

           1       2       3       4       5       6       7       8       9      10      11      12
 ...................................................................................................
   1    0.000   1.000   2.000   3.000   4.000   5.000   6.000   7.000   8.000   9.000  10.000  11.000
   2    0.000   1.000   2.000   3.000   4.000   5.000   6.000   7.000   8.000   9.000  10.000  11.000
   3    0.000   1.000   2.000   3.000   4.000   5.000   6.000   7.000   8.000   9.000  10.000  11.000
   4    0.000   1.000   2.000   3.000   4.000   5.000   6.000   7.000   8.000   9.000  10.000  11.000
   5    0.000   1.000   2.000   3.000   4.000   5.000   6.000   7.000   8.000   9.000  10.000  11.000
   6    0.000   1.000   2.000   3.000   4.000   5.000   6.000   7.000   8.000   9.000  10.000  11.000
   7    0.000   1.000   2.000   3.000   4.000   5.000   6.000   7.000   8.000   9.000  10.000  11.000
   8    0.000   1.000   2.000   3.000   4.000   5.000   6.000   7.000   8.000   9.000  10.000  11.000
   9    0.000   1.000   2.000   3.000   4.000   5.000   6.000   7.000   8.000   9.000  10.000  11.000
  10    0.000   1.000   2.000   3.000   4.000   5.000   6.000   7.000   8.000   9.000  10.000  11.000
1
              HEAD IN LAYER  2 AT END OF TIME STEP 10 IN STRESS PERIOD  2
  -----------------------------------------------------------------------

           1       2       3       4       5       6       7       8       9      10      11      12
 ...................................................................................................
   1    0.000   1.000   2.000   3.000   4.000   5.000   6.000   7.000   8.000   9.000  10.000  11.000
   2    0.000   1.000   2.000   3.000   4.000   5.000   6.000   7.000   8.000   9.000  10.000  11.000
   3    0.000   1.000   2.000   3.000   4.000   5.000   6.000   7.000   8.000   9.000  10.000  11.000
   4    0.000   1.000   2.000   3.000   4.000   5.000   6.000   7.000   8.000   9.000  10.000  11.000
   5    0.000   1.000   2.000   3.000   4.000   5.000   6.000   7.000   8.000   9.000  10.000  11.000
   6    0.000   1.000   2.000   3.000   4.000   5.000   6.000   7.000   8.000   9.000  10.000  11.000
   7    0.000   1.000   2.000   3.000   4.000   5.000   6.000   7.000   8.000   9.000  10.000  11.000
   8    0.000   1.000   2.000   3.000   4.000   5.000   6.000   7.000   8.000   9.000  10.000  11.000
   9    0.000   1.000   2.000   3.000   4.000   5.000   6.000   7.000   8.000   9.000  10.000  11.000
  10    0.000   1.000   2.000   3.000   4.000   5.000   6.000   7.000   8.000   9.000  10.000  11.000
1
  VOLUMETRIC BUDGET FOR ENTIRE MODEL AT END OF TIME STEP 10 IN STRESS PERIOD  2
  -----------------------------------------------------------------------------

     CUMULATIVE VOLUMES      L**3       RATES FOR THIS TIME STEP      L**3/T
     ------------------                 ------------------------

           IN:                                      IN:
           ---                                      ---
             STORAGE =      199999.9219               STORAGE =       3.0398E-06
       CONSTANT HEAD =    39683132.0000         CONSTANT HEAD =       19999.9961
    INTERBED STORAGE =      550000.0000      INTERBED STORAGE =       2.8069E-05

            TOTAL IN =    40433132.0000              TOTAL IN =       19999.9961

          OUT:                                     OUT:
          ----                                     ----
             STORAGE =           0.0000               STORAGE =           0.0000
       CONSTANT HEAD =    40433144.0000         CONSTANT HEAD =       20000.0039
    INTERBED STORAGE =           0.0000      INTERBED STORAGE =           0.0000

           TOTAL OUT =    40433144.0000             TOTAL OUT =       20000.0039

            IN - OUT =         -12.0000              IN - OUT =      -7.8125E-03

 PERCENT DISCREPANCY =           0.00     PERCENT DISCREPANCY =           0.00






          TIME SUMMARY AT END OF TIME STEP 10 IN STRESS PERIOD  2
                    SECONDS     MINUTES      HOURS       DAYS        YEARS
                    -----------------------------------------------------------
   TIME STEP LENGTH 2.93082E+07 4.88471E+05  8141.2      339.22     0.92872    
 STRESS PERIOD TIME 8.64000E+07 1.44000E+06  24000.      1000.0      2.7379    
         TOTAL TIME 1.72800E+08 2.88000E+06  48000.      2000.0      5.4757    
1
1
        SUBSIDENCE IN LAYER  1 AT END OF TIME STEP 10 IN STRESS PERIOD  2
  -----------------------------------------------------------------------

            1           2           3           4           5           6           7           8           9          10
           11          12
 ........................................................................................................................
   1       0.      5.5000E-03  5.5000E-03  5.5000E-03  5.5000E-03  5.5000E-03  5.5000E-03  5.5000E-03  5.5000E-03  5.5000E-03
       5.5000E-03      0.    
   2       0.      5.5000E-03  5.5000E-03  5.5000E-03  5.5000E-03  5.5000E-03  5.5000E-03  5.5000E-03  5.5000E-03  5.5000E-03
       5.5000E-03      0.    
   3       0.      5.5000E-03  5.5000E-03  5.5000E-03  5.5000E-03  5.5000E-03  5.5000E-03  5.5000E-03  5.5000E-03  5.5000E-03
       5.5000E-03      0.    
   4       0.      5.5000E-03  5.5000E-03  5.5000E-03  5.5000E-03  5.5000E-03  5.5000E-03  5.5000E-03  5.5000E-03  5.5000E-03
       5.5000E-03      0.    
   5       0.      5.5000E-03  5.5000E-03  5.5000E-03  5.5000E-03  5.5000E-03  5.5000E-03  5.5000E-03  5.5000E-03  5.5000E-03
       5.5000E-03      0.    
   6       0.      5.5000E-03  5.5000E-03  5.5000E-03  5.5000E-03  5.5000E-03  5.5000E-03  5.5000E-03  5.5000E-03  5.5000E-03
       5.5000E-03      0.    
   7       0.      5.5000E-03  5.5000E-03  5.5000E-03  5.5000E-03  5.5000E-03  5.5000E-03  5.5000E-03  5.5000E-03  5.5000E-03
       5.5000E-03      0.    
   8       0.      5.5000E-03  5.5000E-03  5.5000E-03  5.5000E-03  5.5000E-03  5.5000E-03  5.5000E-03  5.5000E-03  5.5000E-03
       5.5000E-03      0.    
   9       0.      5.5000E-03  5.5000E-03  5.5000E-03  5.5000E-03  5.5000E-03  5.5000E-03  5.5000E-03  5.5000E-03  5.5000E-03
       5.5000E-03      0.    
  10       0.      5.5000E-03  5.5000E-03  5.5000E-03  5.5000E-03  5.5000E-03  5.5000E-03  5.5000E-03  5.5000E-03  5.5000E-03
       5.5000E-03      0.    
1
                            STRESS PERIOD NO.   3, LENGTH =   1000.000    
                            ----------------------------------------------

                              NUMBER OF TIME STEPS =    10

                               MULTIPLIER FOR DELT =     1.500

                            INITIAL TIME STEP SIZE =   8.823783    

     1 ITERATIONS FOR TIME STEP   1 IN STRESS PERIOD  3

 MAXIMUM HEAD CHANGE FOR EACH ITERATION:

    HEAD CHANGE   HEAD CHANGE   HEAD CHANGE   HEAD CHANGE   HEAD CHANGE
  LAYER,ROW,COL LAYER,ROW,COL LAYER,ROW,COL LAYER,ROW,COL LAYER,ROW,COL
 ----------------------------------------------------------------------
    -0.1665E-06
  (  1,  3,  7)


 HEAD/DRAWDOWN PRINTOUT FLAG = 0     TOTAL BUDGET PRINTOUT FLAG = 0
 CELL-BY-CELL FLOW TERM FLAG = 0
 REUSING PREVIOUS VALUES OF IOFLG
     1 ITERATIONS FOR TIME STEP   2 IN STRESS PERIOD  3

 MAXIMUM HEAD CHANGE FOR EACH ITERATION:

    HEAD CHANGE   HEAD CHANGE   HEAD CHANGE   HEAD CHANGE   HEAD CHANGE
  LAYER,ROW,COL LAYER,ROW,COL LAYER,ROW,COL LAYER,ROW,COL LAYER,ROW,COL
 ----------------------------------------------------------------------
    -0.1585E-06
  (  1,  4,  6)


 HEAD/DRAWDOWN PRINTOUT FLAG = 0     TOTAL BUDGET PRINTOUT FLAG = 0
 CELL-BY-CELL FLOW TERM FLAG = 0
 REUSING PREVIOUS VALUES OF IOFLG
     1 ITERATIONS FOR TIME STEP   3 IN STRESS PERIOD  3

 MAXIMUM HEAD CHANGE FOR EACH ITERATION:

    HEAD CHANGE   HEAD CHANGE   HEAD CHANGE   HEAD CHANGE   HEAD CHANGE
  LAYER,ROW,COL LAYER,ROW,COL LAYER,ROW,COL LAYER,ROW,COL LAYER,ROW,COL
 ----------------------------------------------------------------------
    -0.1622E-06
  (  1, 10,  8)


 HEAD/DRAWDOWN PRINTOUT FLAG = 0     TOTAL BUDGET PRINTOUT FLAG = 0
 CELL-BY-CELL FLOW TERM FLAG = 0
 REUSING PREVIOUS VALUES OF IOFLG
     1 ITERATIONS FOR TIME STEP   4 IN STRESS PERIOD  3

 MAXIMUM HEAD CHANGE FOR EACH ITERATION:

    HEAD CHANGE   HEAD CHANGE   HEAD CHANGE   HEAD CHANGE   HEAD CHANGE
  LAYER,ROW,COL LAYER,ROW,COL LAYER,ROW,COL LAYER,ROW,COL LAYER,ROW,COL
 ----------------------------------------------------------------------
    -0.1128E-06
  (  1,  2,  6)


 HEAD/DRAWDOWN PRINTOUT FLAG = 0     TOTAL BUDGET PRINTOUT FLAG = 0
 CELL-BY-CELL FLOW TERM FLAG = 0
 REUSING PREVIOUS VALUES OF IOFLG
     1 ITERATIONS FOR TIME STEP   5 IN STRESS PERIOD  3

 MAXIMUM HEAD CHANGE FOR EACH ITERATION:

    HEAD CHANGE   HEAD CHANGE   HEAD CHANGE   HEAD CHANGE   HEAD CHANGE
  LAYER,ROW,COL LAYER,ROW,COL LAYER,ROW,COL LAYER,ROW,COL LAYER,ROW,COL
 ----------------------------------------------------------------------
    -0.9620E-07
  (  1,  2,  6)


 HEAD/DRAWDOWN PRINTOUT FLAG = 0     TOTAL BUDGET PRINTOUT FLAG = 0
 CELL-BY-CELL FLOW TERM FLAG = 0
 REUSING PREVIOUS VALUES OF IOFLG
     1 ITERATIONS FOR TIME STEP   6 IN STRESS PERIOD  3

 MAXIMUM HEAD CHANGE FOR EACH ITERATION:

    HEAD CHANGE   HEAD CHANGE   HEAD CHANGE   HEAD CHANGE   HEAD CHANGE
  LAYER,ROW,COL LAYER,ROW,COL LAYER,ROW,COL LAYER,ROW,COL LAYER,ROW,COL
 ----------------------------------------------------------------------
    -0.8193E-07
  (  1,  4,  7)


 HEAD/DRAWDOWN PRINTOUT FLAG = 0     TOTAL BUDGET PRINTOUT FLAG = 0
 CELL-BY-CELL FLOW TERM FLAG = 0
 REUSING PREVIOUS VALUES OF IOFLG
     1 ITERATIONS FOR TIME STEP   7 IN STRESS PERIOD  3

 MAXIMUM HEAD CHANGE FOR EACH ITERATION:

    HEAD CHANGE   HEAD CHANGE   HEAD CHANGE   HEAD CHANGE   HEAD CHANGE
  LAYER,ROW,COL LAYER,ROW,COL LAYER,ROW,COL LAYER,ROW,COL LAYER,ROW,COL
 ----------------------------------------------------------------------
    -0.7062E-07
  (  1,  6,  7)


 HEAD/DRAWDOWN PRINTOUT FLAG = 0     TOTAL BUDGET PRINTOUT FLAG = 0
 CELL-BY-CELL FLOW TERM FLAG = 0
 REUSING PREVIOUS VALUES OF IOFLG
     1 ITERATIONS FOR TIME STEP   8 IN STRESS PERIOD  3

 MAXIMUM HEAD CHANGE FOR EACH ITERATION:

    HEAD CHANGE   HEAD CHANGE   HEAD CHANGE   HEAD CHANGE   HEAD CHANGE
  LAYER,ROW,COL LAYER,ROW,COL LAYER,ROW,COL LAYER,ROW,COL LAYER,ROW,COL
 ----------------------------------------------------------------------
    -0.5932E-07
  (  1,  4,  6)


 HEAD/DRAWDOWN PRINTOUT FLAG = 0     TOTAL BUDGET PRINTOUT FLAG = 0
 CELL-BY-CELL FLOW TERM FLAG = 0
 REUSING PREVIOUS VALUES OF IOFLG
     1 ITERATIONS FOR TIME STEP   9 IN STRESS PERIOD  3

 MAXIMUM HEAD CHANGE FOR EACH ITERATION:

    HEAD CHANGE   HEAD CHANGE   HEAD CHANGE   HEAD CHANGE   HEAD CHANGE
  LAYER,ROW,COL LAYER,ROW,COL LAYER,ROW,COL LAYER,ROW,COL LAYER,ROW,COL
 ----------------------------------------------------------------------
    -0.5427E-07
  (  1,  4,  7)


 HEAD/DRAWDOWN PRINTOUT FLAG = 0     TOTAL BUDGET PRINTOUT FLAG = 0
 CELL-BY-CELL FLOW TERM FLAG = 0
 REUSING PREVIOUS VALUES OF IOFLG
     1 ITERATIONS FOR TIME STEP  10 IN STRESS PERIOD  3

 MAXIMUM HEAD CHANGE FOR EACH ITERATION:

    HEAD CHANGE   HEAD CHANGE   HEAD CHANGE   HEAD CHANGE   HEAD CHANGE
  LAYER,ROW,COL LAYER,ROW,COL LAYER,ROW,COL LAYER,ROW,COL LAYER,ROW,COL
 ----------------------------------------------------------------------
    -0.4364E-07
  (  1,  4,  6)


 HEAD/DRAWDOWN PRINTOUT FLAG = 1     TOTAL BUDGET PRINTOUT FLAG = 1
 CELL-BY-CELL FLOW TERM FLAG = 0

 OUTPUT FLAGS FOR ALL LAYERS ARE THE SAME:
   HEAD    DRAWDOWN  HEAD  DRAWDOWN
 PRINTOUT  PRINTOUT  SAVE    SAVE
 ----------------------------------
     1         0       0       0
1
              HEAD IN LAYER  1 AT END OF TIME STEP 10 IN STRESS PERIOD  3
  -----------------------------------------------------------------------

           1       2       3       4       5       6       7       8       9      10      11      12
 ...................................................................................................
   1    0.000   1.000   2.000   3.000   4.000   5.000   6.000   7.000   8.000   9.000  10.000  11.000
   2    0.000   1.000   2.000   3.000   4.000   5.000   6.000   7.000   8.000   9.000  10.000  11.000
   3    0.000   1.000   2.000   3.000   4.000   5.000   6.000   7.000   8.000   9.000  10.000  11.000
   4    0.000   1.000   2.000   3.000   4.000   5.000   6.000   7.000   8.000   9.000  10.000  11.000
   5    0.000   1.000   2.000   3.000   4.000   5.000   6.000   7.000   8.000   9.000  10.000  11.000
   6    0.000   1.000   2.000   3.000   4.000   5.000   6.000   7.000   8.000   9.000  10.000  11.000
   7    0.000   1.000   2.000   3.000   4.000   5.000   6.000   7.000   8.000   9.000  10.000  11.000
   8    0.000   1.000   2.000   3.000   4.000   5.000   6.000   7.000   8.000   9.000  10.000  11.000
   9    0.000   1.000   2.000   3.000   4.000   5.000   6.000   7.000   8.000   9.000  10.000  11.000
  10    0.000   1.000   2.000   3.000   4.000   5.000   6.000   7.000   8.000   9.000  10.000  11.000
1
              HEAD IN LAYER  2 AT END OF TIME STEP 10 IN STRESS PERIOD  3
  -----------------------------------------------------------------------

           1       2       3       4       5       6       7       8       9      10      11      12
 ...................................................................................................
   1    0.000   1.000   2.000   3.000   4.000   5.000   6.000   7.000   8.000   9.000  10.000  11.000
   2    0.000   1.000   2.000   3.000   4.000   5.000   6.000   7.000   8.000   9.000  10.000  11.000
   3    0.000   1.000   2.000   3.000   4.000   5.000   6.000   7.000   8.000   9.000  10.000  11.000
   4    0.000   1.000   2.000   3.000   4.000   5.000   6.000   7.000   8.000   9.000  10.000  11.000
   5    0.000   1.000   2.000   3.000   4.000   5.000   6.000   7.000   8.000   9.000  10.000  11.000
   6    0.000   1.000   2.000   3.000   4.000   5.000   6.000   7.000   8.000   9.000  10.000  11.000
   7    0.000   1.000   2.000   3.000   4.000   5.000   6.000   7.000   8.000   9.000  10.000  11.000
   8    0.000   1.000   2.000   3.000   4.000   5.000   6.000   7.000   8.000   9.000  10.000  11.000
   9    0.000   1.000   2.000   3.000   4.000   5.000   6.000   7.000   8.000   9.000  10.000  11.000
  10    0.000   1.000   2.000   3.000   4.000   5.000   6.000   7.000   8.000   9.000  10.000  11.000
1
  VOLUMETRIC BUDGET FOR ENTIRE MODEL AT END OF TIME STEP 10 IN STRESS PERIOD  3
  -----------------------------------------------------------------------------

     CUMULATIVE VOLUMES      L**3       RATES FOR THIS TIME STEP      L**3/T
     ------------------                 ------------------------

           IN:                                      IN:
           ---                                      ---
             STORAGE =      199999.9219               STORAGE =           0.0000
       CONSTANT HEAD =    59683128.0000         CONSTANT HEAD =       20000.0000
    INTERBED STORAGE =      550000.0000      INTERBED STORAGE =           0.0000

            TOTAL IN =    60433128.0000              TOTAL IN =       20000.0000

          OUT:                                     OUT:
          ----                                     ----
             STORAGE =           0.0000               STORAGE =           0.0000
       CONSTANT HEAD =    60433144.0000         CONSTANT HEAD =       20000.0020
    INTERBED STORAGE =           0.0000      INTERBED STORAGE =           0.0000

           TOTAL OUT =    60433144.0000             TOTAL OUT =       20000.0020

            IN - OUT =         -16.0000              IN - OUT =      -1.9531E-03

 PERCENT DISCREPANCY =           0.00     PERCENT DISCREPANCY =           0.00






          TIME SUMMARY AT END OF TIME STEP 10 IN STRESS PERIOD  3
                    SECONDS     MINUTES      HOURS       DAYS        YEARS
                    -----------------------------------------------------------
   TIME STEP LENGTH 2.93082E+07 4.88471E+05  8141.2      339.22     0.92872    
 STRESS PERIOD TIME 8.64000E+07 1.44000E+06  24000.      1000.0      2.7379    
         TOTAL TIME 2.59200E+08 4.32000E+06  72000.      3000.0      8.2136    
1
1
        SUBSIDENCE IN LAYER  1 AT END OF TIME STEP 10 IN STRESS PERIOD  3
  -----------------------------------------------------------------------

            1           2           3           4           5           6           7           8           9          10
           11          12
 ........................................................................................................................
   1       0.      5.5000E-03  5.5000E-03  5.5000E-03  5.5000E-03  5.5000E-03  5.5000E-03  5.5000E-03  5.5000E-03  5.5000E-03
       5.5000E-03      0.    
   2       0.      5.5000E-03  5.5000E-03  5.5000E-03  5.5000E-03  5.5000E-03  5.5000E-03  5.5000E-03  5.5000E-03  5.5000E-03
       5.5000E-03      0.    
   3       0.      5.5000E-03  5.5000E-03  5.5000E-03  5.5000E-03  5.5000E-03  5.5000E-03  5.5000E-03  5.5000E-03  5.5000E-03
       5.5000E-03      0.    
   4       0.      5.5000E-03  5.5000E-03  5.5000E-03  5.5000E-03  5.5000E-03  5.5000E-03  5.5000E-03  5.5000E-03  5.5000E-03
       5.5000E-03      0.    
   5       0.      5.5000E-03  5.5000E-03  5.5000E-03  5.5000E-03  5.5000E-03  5.5000E-03  5.5000E-03  5.5000E-03  5.5000E-03
       5.5000E-03      0.    
   6       0.      5.5000E-03  5.5000E-03  5.5000E-03  5.5000E-03  5.5000E-03  5.5000E-03  5.5000E-03  5.5000E-03  5.5000E-03
       5.5000E-03      0.    
   7       0.      5.5000E-03  5.5000E-03  5.5000E-03  5.5000E-03  5.5000E-03  5.5000E-03  5.5000E-03  5.5000E-03  5.5000E-03
       5.5000E-03      0.    
   8       0.      5.5000E-03  5.5000E-03  5.5000E-03  5.5000E-03  5.5000E-03  5.5000E-03  5.5000E-03  5.5000E-03  5.5000E-03
       5.5000E-03      0.    
   9       0.      5.5000E-03  5.5000E-03  5.5000E-03  5.5000E-03  5.5000E-03  5.5000E-03  5.5000E-03  5.5000E-03  5.5000E-03
       5.5000E-03      0.    
  10       0.      5.5000E-03  5.5000E-03  5.5000E-03  5.5000E-03  5.5000E-03  5.5000E-03  5.5000E-03  5.5000E-03  5.5000E-03
       5.5000E-03      0.    
