1                    U.S. GEOLOGICAL SURVEY MODULAR FINITE-DIFFERENCE GROUND-WATER MODEL
0MODULAR MODEL STORAGE-DEPLETION TEST PROBLEM     --TESTS CALCULATION OF ULTIMATECOMPACTION OF INTERBEDS                         
    2 LAYERS        10 ROWS        12 COLUMNS
   3 STRESS PERIOD(S) IN SIMULATION
 MODEL TIME UNIT IS DAYS
0I/O UNITS:
 ELEMENT OF IUNIT:  1  2  3  4  5  6  7  8  9 10 11 12 13 14 15 16 17 18 19 20 21 22 23 24
         I/O UNIT:  7  0  0  0  0  0  0  0  9  0  0 11  0  0  0  0  0  0 13  0  0  0  0  0
0BAS1 -- BASIC MODEL PACKAGE, VERSION 1, 9/1/87 INPUT READ FROM UNIT  5
 ARRAYS RHS AND BUFF WILL SHARE MEMORY.
 START HEAD WILL BE SAVED
     2310 ELEMENTS IN X ARRAY ARE USED BY BAS
     2310 ELEMENTS OF X ARRAY USED OUT OF 1500000
0BCF3 -- BLOCK-CENTERED FLOW PACKAGE, VERSION 3, 7/9/92 INPUT READ FROM UNIT  7
 TRANSIENT SIMULATION
 HEAD AT CELLS THAT CONVERT TO DRY=  0.10000E+31
 WETTING CAPABILITY IS NOT ACTIVE
      LAYER  AQUIFER TYPE    INTERBLOCK T
      -------------------------------------
         1         0         0-HARMONIC    
         2         0         0-HARMONIC    
      242 ELEMENTS IN X ARRAY ARE USED BY BCF
     2552 ELEMENTS OF X ARRAY USED OUT OF 1500000
0SIP1 -- STRONGLY IMPLICIT PROCEDURE SOLUTION PACKAGE, VERSION 1, 9/1/87 INPUT READ FROM UNIT  9
 MAXIMUM OF  50 ITERATIONS ALLOWED FOR CLOSURE
  5 ITERATION PARAMETERS
     1165 ELEMENTS IN X ARRAY ARE USED BY SIP
     3717 ELEMENTS OF X ARRAY USED OUT OF 1500000
0IBS1 -- INTERBED STORAGE PACKAGE, VERSION 1, 06/07/96 INPUT READ FROM UNIT 13
 INTERBED STORAGE IN LAYER(S)  1
      480 ELEMENTS OF X ARRAY USED FOR INTERBED STORAGE
     4197 ELEMENTS OF X ARRAY USED OUT OF 1500000
1MODULAR MODEL STORAGE-DEPLETION TEST PROBLEM     --TESTS CALCULATION OF ULTIMATECOMPACTION OF INTERBEDS                         
0


                                        BOUNDARY ARRAY FOR LAYER  1 WILL BE READ ON UNIT  5 USING FORMAT: (20I3)              
                              ------------------------------------------------------------------------------------------------

            1           2           3           4           5           6           7           8           9          10
           11          12
 .............................................................................................................................
0  1           -1           1           1           1           1           1           1           1           1           1
                1          -1
0  2           -1           1           1           1           1           1           1           1           1           1
                1          -1
0  3           -1           1           1           1           1           1           1           1           1           1
                1          -1
0  4           -1           1           1           1           1           1           1           1           1           1
                1          -1
0  5           -1           1           1           1           1           1           1           1           1           1
                1          -1
0  6           -1           1           1           1           1           1           1           1           1           1
                1          -1
0  7           -1           1           1           1           1           1           1           1           1           1
                1          -1
0  8           -1           1           1           1           1           1           1           1           1           1
                1          -1
0  9           -1           1           1           1           1           1           1           1           1           1
                1          -1
0 10           -1           1           1           1           1           1           1           1           1           1
                1          -1
0


                                        BOUNDARY ARRAY FOR LAYER  2 WILL BE READ ON UNIT  5 USING FORMAT: (20I3)              
                              ------------------------------------------------------------------------------------------------

            1           2           3           4           5           6           7           8           9          10
           11          12
 .............................................................................................................................
0  1           -1           1           1           1           1           1           1           1           1           1
                1          -1
0  2           -1           1           1           1           1           1           1           1           1           1
                1          -1
0  3           -1           1           1           1           1           1           1           1           1           1
                1          -1
0  4           -1           1           1           1           1           1           1           1           1           1
                1          -1
0  5           -1           1           1           1           1           1           1           1           1           1
                1          -1
0  6           -1           1           1           1           1           1           1           1           1           1
                1          -1
0  7           -1           1           1           1           1           1           1           1           1           1
                1          -1
0  8           -1           1           1           1           1           1           1           1           1           1
                1          -1
0  9           -1           1           1           1           1           1           1           1           1           1
                1          -1
0 10           -1           1           1           1           1           1           1           1           1           1
                1          -1
0AQUIFER HEAD WILL BE SET TO  444.44     AT ALL NO-FLOW NODES (IBOUND=0).
0


                                          INITIAL HEAD FOR LAYER  1 WILL BE READ ON UNIT  5 USING FORMAT: (18F3.0)            
                              ------------------------------------------------------------------------------------------------

            1           2           3           4           5           6           7           8           9          10
           11          12
 .............................................................................................................................
0  1   0.0000E+00   11.00       12.00       13.00       14.00       15.00       16.00       17.00       18.00       19.00    
        20.00       11.00    
0  2   0.0000E+00   11.00       12.00       13.00       14.00       15.00       16.00       17.00       18.00       19.00    
        20.00       11.00    
0  3   0.0000E+00   11.00       12.00       13.00       14.00       15.00       16.00       17.00       18.00       19.00    
        20.00       11.00    
0  4   0.0000E+00   11.00       12.00       13.00       14.00       15.00       16.00       17.00       18.00       19.00    
        20.00       11.00    
0  5   0.0000E+00   11.00       12.00       13.00       14.00       15.00       16.00       17.00       18.00       19.00    
        20.00       11.00    
0  6   0.0000E+00   11.00       12.00       13.00       14.00       15.00       16.00       17.00       18.00       19.00    
        20.00       11.00    
0  7   0.0000E+00   11.00       12.00       13.00       14.00       15.00       16.00       17.00       18.00       19.00    
        20.00       11.00    
0  8   0.0000E+00   11.00       12.00       13.00       14.00       15.00       16.00       17.00       18.00       19.00    
        20.00       11.00    
0  9   0.0000E+00   11.00       12.00       13.00       14.00       15.00       16.00       17.00       18.00       19.00    
        20.00       11.00    
0 10   0.0000E+00   11.00       12.00       13.00       14.00       15.00       16.00       17.00       18.00       19.00    
        20.00       11.00    
0


                                          INITIAL HEAD FOR LAYER  2 WILL BE READ ON UNIT  5 USING FORMAT: (18F3.0)            
                              ------------------------------------------------------------------------------------------------

            1           2           3           4           5           6           7           8           9          10
           11          12
 .............................................................................................................................
0  1   0.0000E+00   11.00       12.00       13.00       14.00       15.00       16.00       17.00       18.00       19.00    
        20.00       11.00    
0  2   0.0000E+00   11.00       12.00       13.00       14.00       15.00       16.00       17.00       18.00       19.00    
        20.00       11.00    
0  3   0.0000E+00   11.00       12.00       13.00       14.00       15.00       16.00       17.00       18.00       19.00    
        20.00       11.00    
0  4   0.0000E+00   11.00       12.00       13.00       14.00       15.00       16.00       17.00       18.00       19.00    
        20.00       11.00    
0  5   0.0000E+00   11.00       12.00       13.00       14.00       15.00       16.00       17.00       18.00       19.00    
        20.00       11.00    
0  6   0.0000E+00   11.00       12.00       13.00       14.00       15.00       16.00       17.00       18.00       19.00    
        20.00       11.00    
0  7   0.0000E+00   11.00       12.00       13.00       14.00       15.00       16.00       17.00       18.00       19.00    
        20.00       11.00    
0  8   0.0000E+00   11.00       12.00       13.00       14.00       15.00       16.00       17.00       18.00       19.00    
        20.00       11.00    
0  9   0.0000E+00   11.00       12.00       13.00       14.00       15.00       16.00       17.00       18.00       19.00    
        20.00       11.00    
0 10   0.0000E+00   11.00       12.00       13.00       14.00       15.00       16.00       17.00       18.00       19.00    
        20.00       11.00    
0HEAD PRINT FORMAT IS FORMAT NUMBER   5    DRAWDOWN PRINT FORMAT IS FORMAT NUMBER   5
0HEADS WILL BE SAVED ON UNIT  0    DRAWDOWNS WILL BE SAVED ON UNIT  0
0OUTPUT CONTROL IS SPECIFIED EVERY TIME STEP
0                                                    COLUMN TO ROW ANISOTROPY =   1.000000    
0                                                                        DELR =   1000.000    
0                                                                        DELC =   1000.000    
0                                                        PRIMARY STORAGE COEF =  0.1000000E-03 FOR LAYER  1
0                                                        TRANSMIS. ALONG ROWS =   1000.000     FOR LAYER  1
0                                                    VERT HYD COND /THICKNESS =  0.1000000E-05 FOR LAYER  1
0                                                        PRIMARY STORAGE COEF =  0.1000000E-03 FOR LAYER  2
0                                                        TRANSMIS. ALONG ROWS =   1000.000     FOR LAYER  2
0


                                                         SOLUTION BY THE STRONGLY IMPLICIT PROCEDURE
                                                         -------------------------------------------
0                                               MAXIMUM ITERATIONS ALLOWED FOR CLOSURE =       50
                                                                ACCELERATION PARAMETER =     1.0000    
                                                     HEAD CHANGE CRITERION FOR CLOSURE =    0.10000E-04
                                                     SIP HEAD CHANGE PRINTOUT INTERVAL =        1
0                                                    CALCULATE ITERATION PARAMETERS FROM MODEL CALCULATED WSEED
0


                                 PRECONSOLIDATION HEAD FOR LAYER  1 WILL BE READ ON UNIT 13 USING FORMAT: (12F3.0)            
                              ------------------------------------------------------------------------------------------------

            1           2           3           4           5           6           7           8           9          10
           11          12
 .............................................................................................................................
0  1    5.000       6.000       7.000       8.000       9.000       10.00       11.00       12.00       13.00       14.00    
        15.00       16.00    
0  2    5.000       6.000       7.000       8.000       9.000       10.00       11.00       12.00       13.00       14.00    
        15.00       16.00    
0  3    5.000       6.000       7.000       8.000       9.000       10.00       11.00       12.00       13.00       14.00    
        15.00       16.00    
0  4    5.000       6.000       7.000       8.000       9.000       10.00       11.00       12.00       13.00       14.00    
        15.00       16.00    
0  5    5.000       6.000       7.000       8.000       9.000       10.00       11.00       12.00       13.00       14.00    
        15.00       16.00    
0  6    5.000       6.000       7.000       8.000       9.000       10.00       11.00       12.00       13.00       14.00    
        15.00       16.00    
0  7    5.000       6.000       7.000       8.000       9.000       10.00       11.00       12.00       13.00       14.00    
        15.00       16.00    
0  8    5.000       6.000       7.000       8.000       9.000       10.00       11.00       12.00       13.00       14.00    
        15.00       16.00    
0  9    5.000       6.000       7.000       8.000       9.000       10.00       11.00       12.00       13.00       14.00    
        15.00       16.00    
0 10    5.000       6.000       7.000       8.000       9.000       10.00       11.00       12.00       13.00       14.00    
        15.00       16.00    
0                                                    ELASTIC INTERBED STORAGE =  0.1000000E-03 FOR LAYER  1
0                                                     VIRGIN INTERBED STORAGE =  0.1000000E-02 FOR LAYER  1
0                                                         STARTING COMPACTION =  0.0000000E+00 FOR LAYER  1
1                                                   STRESS PERIOD NO.   1, LENGTH =   1000.000    
                                                    ----------------------------------------------

                                                    NUMBER OF TIME STEPS =    10

                                                     MULTIPLIER FOR DELT =     1.500

                                                  INITIAL TIME STEP SIZE =   8.823783    
0AVERAGE SEED = 0.00061654
 MINIMUM SEED = 0.00061654
0
    5 ITERATION PARAMETERS CALCULATED FROM AVERAGE SEED:

            0.0000000E+00  0.8424237E+00  0.9751697E+00  0.9960873E+00  0.9993834E+00
0
    15 ITERATIONS FOR TIME STEP   1 IN STRESS PERIOD  1
0MAXIMUM HEAD CHANGE FOR EACH ITERATION:
0 HEAD CHANGE LAYER,ROW,COL HEAD CHANGE LAYER,ROW,COL HEAD CHANGE LAYER,ROW,COL HEAD CHANGE LAYER,ROW,COL HEAD CHANGE LAYER,ROW,COL
 ------------------------------------------------------------------------------------------------------------------------------------
   -6.261     (  2, 10,  2)  -3.498     (  2,  1,  4)  -4.478     (  2, 10,  6)  -1.528     (  2,  1,  7) -0.9372E-01 (  2, 10,  9)
  -0.1287E-01 (  2,  1, 11)  0.1572E-01 (  2,  9,  7)  0.7545E-02 (  2, 10,  6)  0.1865E-02 (  2,  4,  7)  0.4866E-03 (  2,  5,  5)
   0.1398E-03 (  2, 10,  9) -0.1231E-03 (  2,  2,  7) -0.6299E-04 (  2,  1,  6) -0.1349E-04 (  2,  4,  4) -0.5179E-05 (  2,  8,  6)
0
0HEAD/DRAWDOWN PRINTOUT FLAG = 0     TOTAL BUDGET PRINTOUT FLAG = 0     CELL-BY-CELL FLOW TERM FLAG = 0
 REUSING PREVIOUS VALUES OF IOFLG
    11 ITERATIONS FOR TIME STEP   2 IN STRESS PERIOD  1
0MAXIMUM HEAD CHANGE FOR EACH ITERATION:
0 HEAD CHANGE LAYER,ROW,COL HEAD CHANGE LAYER,ROW,COL HEAD CHANGE LAYER,ROW,COL HEAD CHANGE LAYER,ROW,COL HEAD CHANGE LAYER,ROW,COL
 ------------------------------------------------------------------------------------------------------------------------------------
  -0.6261     (  1, 10,  3) -0.8487     (  1,  2,  6) -0.6972     (  1,  6,  7) -0.2087     (  2,  1,  7) -0.1250E-01 (  2, 10,  9)
  -0.2047E-02 (  2,  5, 10)  0.2251E-02 (  2,  6,  5)  0.1303E-02 (  2,  8,  5)  0.3824E-03 (  2, 10,  7) -0.3725E-04 (  2,  9,  5)
   0.7808E-05 (  2,  6,  6)
0
0HEAD/DRAWDOWN PRINTOUT FLAG = 0     TOTAL BUDGET PRINTOUT FLAG = 0     CELL-BY-CELL FLOW TERM FLAG = 0
 REUSING PREVIOUS VALUES OF IOFLG
    11 ITERATIONS FOR TIME STEP   3 IN STRESS PERIOD  1
0MAXIMUM HEAD CHANGE FOR EACH ITERATION:
0 HEAD CHANGE LAYER,ROW,COL HEAD CHANGE LAYER,ROW,COL HEAD CHANGE LAYER,ROW,COL HEAD CHANGE LAYER,ROW,COL HEAD CHANGE LAYER,ROW,COL
 ------------------------------------------------------------------------------------------------------------------------------------
  -0.3537     (  1, 10,  7) -0.5255     (  1,  2,  7) -0.4776     (  1,  6,  7) -0.1016     (  1,  1,  8)  0.8723E-02 (  1,  2,  7)
   0.1194E-02 (  1,  6,  5)  0.1027E-02 (  1,  6,  5)  0.5015E-03 (  1,  6,  5)  0.1007E-03 (  1, 10,  8) -0.1712E-04 (  1,  2,  8)
   0.4232E-05 (  1,  5,  6)
0
0HEAD/DRAWDOWN PRINTOUT FLAG = 0     TOTAL BUDGET PRINTOUT FLAG = 0     CELL-BY-CELL FLOW TERM FLAG = 0
 REUSING PREVIOUS VALUES OF IOFLG
    11 ITERATIONS FOR TIME STEP   4 IN STRESS PERIOD  1
0MAXIMUM HEAD CHANGE FOR EACH ITERATION:
0 HEAD CHANGE LAYER,ROW,COL HEAD CHANGE LAYER,ROW,COL HEAD CHANGE LAYER,ROW,COL HEAD CHANGE LAYER,ROW,COL HEAD CHANGE LAYER,ROW,COL
 ------------------------------------------------------------------------------------------------------------------------------------
  -0.1510     (  1, 10,  7) -0.2362     (  1,  2,  7) -0.2396     (  1,  6,  7) -0.6030E-01 (  1,  1,  8)  0.4826E-02 (  1,  2,  7)
   0.6253E-03 (  1,  6,  5)  0.5679E-03 (  1,  6,  5)  0.3025E-03 (  1,  6,  5)  0.7028E-04 (  1, 10,  8) -0.1091E-04 (  1,  3,  7)
   0.2655E-05 (  1,  5,  6)
0
0HEAD/DRAWDOWN PRINTOUT FLAG = 0     TOTAL BUDGET PRINTOUT FLAG = 0     CELL-BY-CELL FLOW TERM FLAG = 0
 REUSING PREVIOUS VALUES OF IOFLG
    10 ITERATIONS FOR TIME STEP   5 IN STRESS PERIOD  1
0MAXIMUM HEAD CHANGE FOR EACH ITERATION:
0 HEAD CHANGE LAYER,ROW,COL HEAD CHANGE LAYER,ROW,COL HEAD CHANGE LAYER,ROW,COL HEAD CHANGE LAYER,ROW,COL HEAD CHANGE LAYER,ROW,COL
 ------------------------------------------------------------------------------------------------------------------------------------
  -0.4758E-01 (  1, 10,  7) -0.7817E-01 (  1,  2,  6) -0.8677E-01 (  1,  6,  7) -0.2461E-01 (  1,  1,  8)  0.1878E-02 (  1,  2,  7)
  -0.2603E-03 (  1,  5, 10)  0.2551E-03 (  1,  6,  5)  0.1366E-03 (  1,  7,  5)  0.3517E-04 (  1, 10,  7) -0.4358E-05 (  1,  8,  4)
0
0HEAD/DRAWDOWN PRINTOUT FLAG = 0     TOTAL BUDGET PRINTOUT FLAG = 0     CELL-BY-CELL FLOW TERM FLAG = 0
 REUSING PREVIOUS VALUES OF IOFLG
    10 ITERATIONS FOR TIME STEP   6 IN STRESS PERIOD  1
0MAXIMUM HEAD CHANGE FOR EACH ITERATION:
0 HEAD CHANGE LAYER,ROW,COL HEAD CHANGE LAYER,ROW,COL HEAD CHANGE LAYER,ROW,COL HEAD CHANGE LAYER,ROW,COL HEAD CHANGE LAYER,ROW,COL
 ------------------------------------------------------------------------------------------------------------------------------------
  -0.1116E-01 (  1, 10,  7) -0.1882E-01 (  1,  2,  6) -0.2231E-01 (  1, 10,  7) -0.6909E-02 (  1,  1,  8)  0.4881E-03 (  1,  2,  7)
  -0.7313E-04 (  1,  5, 10)  0.7315E-04 (  1,  6,  5)  0.4059E-04 (  1,  7,  5)  0.1129E-04 (  1, 10,  7) -0.1293E-05 (  1,  8,  4)
0
0HEAD/DRAWDOWN PRINTOUT FLAG = 0     TOTAL BUDGET PRINTOUT FLAG = 0     CELL-BY-CELL FLOW TERM FLAG = 0
 REUSING PREVIOUS VALUES OF IOFLG
     8 ITERATIONS FOR TIME STEP   7 IN STRESS PERIOD  1
0MAXIMUM HEAD CHANGE FOR EACH ITERATION:
0 HEAD CHANGE LAYER,ROW,COL HEAD CHANGE LAYER,ROW,COL HEAD CHANGE LAYER,ROW,COL HEAD CHANGE LAYER,ROW,COL HEAD CHANGE LAYER,ROW,COL
 ------------------------------------------------------------------------------------------------------------------------------------
  -0.1869E-02 (  1, 10,  7) -0.3240E-02 (  1,  2,  6) -0.4012E-02 (  1, 10,  7) -0.1319E-02 (  1,  1,  8)  0.8933E-04 (  1,  2,  7)
  -0.1417E-04 (  1,  5, 10)  0.1421E-04 (  1,  6,  5)  0.7899E-05 (  1,  7,  5)
0
0HEAD/DRAWDOWN PRINTOUT FLAG = 0     TOTAL BUDGET PRINTOUT FLAG = 0     CELL-BY-CELL FLOW TERM FLAG = 0
 REUSING PREVIOUS VALUES OF IOFLG
     6 ITERATIONS FOR TIME STEP   8 IN STRESS PERIOD  1
0MAXIMUM HEAD CHANGE FOR EACH ITERATION:
0 HEAD CHANGE LAYER,ROW,COL HEAD CHANGE LAYER,ROW,COL HEAD CHANGE LAYER,ROW,COL HEAD CHANGE LAYER,ROW,COL HEAD CHANGE LAYER,ROW,COL
 ------------------------------------------------------------------------------------------------------------------------------------
  -0.2209E-03 (  1, 10,  7) -0.3888E-03 (  1,  2,  6) -0.4966E-03 (  1, 10,  7) -0.1704E-03 (  1,  1,  7)  0.1113E-04 (  1,  2,  7)
  -0.1813E-05 (  1,  5, 10)
0
0HEAD/DRAWDOWN PRINTOUT FLAG = 0     TOTAL BUDGET PRINTOUT FLAG = 0     CELL-BY-CELL FLOW TERM FLAG = 0
 REUSING PREVIOUS VALUES OF IOFLG
     5 ITERATIONS FOR TIME STEP   9 IN STRESS PERIOD  1
0MAXIMUM HEAD CHANGE FOR EACH ITERATION:
0 HEAD CHANGE LAYER,ROW,COL HEAD CHANGE LAYER,ROW,COL HEAD CHANGE LAYER,ROW,COL HEAD CHANGE LAYER,ROW,COL HEAD CHANGE LAYER,ROW,COL
 ------------------------------------------------------------------------------------------------------------------------------------
  -0.1765E-04 (  1, 10,  7) -0.3200E-04 (  1,  2,  7) -0.4121E-04 (  1,  6,  7) -0.1459E-04 (  1,  1,  7)  0.9687E-06 (  1,  2,  7)
0
0HEAD/DRAWDOWN PRINTOUT FLAG = 0     TOTAL BUDGET PRINTOUT FLAG = 0     CELL-BY-CELL FLOW TERM FLAG = 0
 REUSING PREVIOUS VALUES OF IOFLG
     1 ITERATIONS FOR TIME STEP  10 IN STRESS PERIOD  1
0MAXIMUM HEAD CHANGE FOR EACH ITERATION:
0 HEAD CHANGE LAYER,ROW,COL HEAD CHANGE LAYER,ROW,COL HEAD CHANGE LAYER,ROW,COL HEAD CHANGE LAYER,ROW,COL HEAD CHANGE LAYER,ROW,COL
 ------------------------------------------------------------------------------------------------------------------------------------
  -0.9385E-06 (  1, 10,  7)
0
0HEAD/DRAWDOWN PRINTOUT FLAG = 1     TOTAL BUDGET PRINTOUT FLAG = 1     CELL-BY-CELL FLOW TERM FLAG = 0
0OUTPUT FLAGS FOR ALL LAYERS ARE THE SAME:
   HEAD    DRAWDOWN  HEAD  DRAWDOWN
 PRINTOUT  PRINTOUT  SAVE    SAVE
 ----------------------------------
     1         0       0       0
1                      HEAD IN LAYER  1 AT END OF TIME STEP 10 IN STRESS PERIOD  1
           -----------------------------------------------------------------------

           1       2       3       4       5       6       7       8       9      10      11      12
 ........................................................................................................
0  1    0.000   1.000   2.000   3.000   4.000   5.000   6.000   7.000   8.000   9.000  10.000  11.000
0  2    0.000   1.000   2.000   3.000   4.000   5.000   6.000   7.000   8.000   9.000  10.000  11.000
0  3    0.000   1.000   2.000   3.000   4.000   5.000   6.000   7.000   8.000   9.000  10.000  11.000
0  4    0.000   1.000   2.000   3.000   4.000   5.000   6.000   7.000   8.000   9.000  10.000  11.000
0  5    0.000   1.000   2.000   3.000   4.000   5.000   6.000   7.000   8.000   9.000  10.000  11.000
0  6    0.000   1.000   2.000   3.000   4.000   5.000   6.000   7.000   8.000   9.000  10.000  11.000
0  7    0.000   1.000   2.000   3.000   4.000   5.000   6.000   7.000   8.000   9.000  10.000  11.000
0  8    0.000   1.000   2.000   3.000   4.000   5.000   6.000   7.000   8.000   9.000  10.000  11.000
0  9    0.000   1.000   2.000   3.000   4.000   5.000   6.000   7.000   8.000   9.000  10.000  11.000
0 10    0.000   1.000   2.000   3.000   4.000   5.000   6.000   7.000   8.000   9.000  10.000  11.000
1                      HEAD IN LAYER  2 AT END OF TIME STEP 10 IN STRESS PERIOD  1
           -----------------------------------------------------------------------

           1       2       3       4       5       6       7       8       9      10      11      12
 ........................................................................................................
0  1    0.000   1.000   2.000   3.000   4.000   5.000   6.000   7.000   8.000   9.000  10.000  11.000
0  2    0.000   1.000   2.000   3.000   4.000   5.000   6.000   7.000   8.000   9.000  10.000  11.000
0  3    0.000   1.000   2.000   3.000   4.000   5.000   6.000   7.000   8.000   9.000  10.000  11.000
0  4    0.000   1.000   2.000   3.000   4.000   5.000   6.000   7.000   8.000   9.000  10.000  11.000
0  5    0.000   1.000   2.000   3.000   4.000   5.000   6.000   7.000   8.000   9.000  10.000  11.000
0  6    0.000   1.000   2.000   3.000   4.000   5.000   6.000   7.000   8.000   9.000  10.000  11.000
0  7    0.000   1.000   2.000   3.000   4.000   5.000   6.000   7.000   8.000   9.000  10.000  11.000
0  8    0.000   1.000   2.000   3.000   4.000   5.000   6.000   7.000   8.000   9.000  10.000  11.000
0  9    0.000   1.000   2.000   3.000   4.000   5.000   6.000   7.000   8.000   9.000  10.000  11.000
0 10    0.000   1.000   2.000   3.000   4.000   5.000   6.000   7.000   8.000   9.000  10.000  11.000
0


                              VOLUMETRIC BUDGET FOR ENTIRE MODEL AT END OF TIME STEP 10 IN STRESS PERIOD  1
                              -----------------------------------------------------------------------------
0                   CUMULATIVE VOLUMES      L**3                                     RATES FOR THIS TIME STEP      L**3/T
                    ------------------                                               ------------------------

                          IN:                                                                    IN:
                          ---                                                                    ---
                            STORAGE =   0.20000E+06                                                STORAGE =   0.18578E-04
                      CONSTANT HEAD =   0.19683E+08                                          CONSTANT HEAD =    20000.    
                   INTERBED STORAGE =   0.55000E+06                                       INTERBED STORAGE =   0.14754E-03
0                          TOTAL IN =   0.20433E+08                                               TOTAL IN =    20000.    
0                        OUT:                                                                   OUT:
                         ----                                                                   ----
                            STORAGE =   0.00000E+00                                                STORAGE =   0.00000E+00
                      CONSTANT HEAD =   0.20433E+08                                          CONSTANT HEAD =    20000.    
                   INTERBED STORAGE =   0.00000E+00                                       INTERBED STORAGE =   0.00000E+00
0                         TOTAL OUT =   0.20433E+08                                              TOTAL OUT =    20000.    
0                          IN - OUT =   -2.0000                                                   IN - OUT =  -0.25391E-01
0               PERCENT DISCREPANCY =                0.00                              PERCENT DISCREPANCY =                0.00



0


          TIME SUMMARY AT END OF TIME STEP 10 IN STRESS PERIOD  1
                               SECONDS        MINUTES         HOURS          DAYS           YEARS
                           ---------------------------------------------------------------------------
      TIME STEP LENGTH        0.293083E+08    488471.        8141.18        339.216       0.928722    
    STRESS PERIOD TIME        0.864000E+08   0.144000E+07    24000.0        1000.00        2.73785    
 TOTAL SIMULATION TIME        0.864000E+08   0.144000E+07    24000.0        1000.00        2.73785    
1
1                SUBSIDENCE IN LAYER  1 AT END OF TIME STEP 10 IN STRESS PERIOD  1
           -----------------------------------------------------------------------

            1           2           3           4           5           6           7           8           9          10
           11          12
 .............................................................................................................................
0  1   0.0000E+00  5.5000E-03  5.5000E-03  5.5000E-03  5.5000E-03  5.5000E-03  5.5000E-03  5.5000E-03  5.5000E-03  5.5000E-03
       5.5000E-03  0.0000E+00
0  2   0.0000E+00  5.5000E-03  5.5000E-03  5.5000E-03  5.5000E-03  5.5000E-03  5.5000E-03  5.5000E-03  5.5000E-03  5.5000E-03
       5.5000E-03  0.0000E+00
0  3   0.0000E+00  5.5000E-03  5.5000E-03  5.5000E-03  5.5000E-03  5.5000E-03  5.5000E-03  5.5000E-03  5.5000E-03  5.5000E-03
       5.5000E-03  0.0000E+00
0  4   0.0000E+00  5.5000E-03  5.5000E-03  5.5000E-03  5.5000E-03  5.5000E-03  5.5000E-03  5.5000E-03  5.5000E-03  5.5000E-03
       5.5000E-03  0.0000E+00
0  5   0.0000E+00  5.5000E-03  5.5000E-03  5.5000E-03  5.5000E-03  5.5000E-03  5.5000E-03  5.5000E-03  5.5000E-03  5.5000E-03
       5.5000E-03  0.0000E+00
0  6   0.0000E+00  5.5000E-03  5.5000E-03  5.5000E-03  5.5000E-03  5.5000E-03  5.5000E-03  5.5000E-03  5.5000E-03  5.5000E-03
       5.5000E-03  0.0000E+00
0  7   0.0000E+00  5.5000E-03  5.5000E-03  5.5000E-03  5.5000E-03  5.5000E-03  5.5000E-03  5.5000E-03  5.5000E-03  5.5000E-03
       5.5000E-03  0.0000E+00
0  8   0.0000E+00  5.5000E-03  5.5000E-03  5.5000E-03  5.5000E-03  5.5000E-03  5.5000E-03  5.5000E-03  5.5000E-03  5.5000E-03
       5.5000E-03  0.0000E+00
0  9   0.0000E+00  5.5000E-03  5.5000E-03  5.5000E-03  5.5000E-03  5.5000E-03  5.5000E-03  5.5000E-03  5.5000E-03  5.5000E-03
       5.5000E-03  0.0000E+00
0 10   0.0000E+00  5.5000E-03  5.5000E-03  5.5000E-03  5.5000E-03  5.5000E-03  5.5000E-03  5.5000E-03  5.5000E-03  5.5000E-03
       5.5000E-03  0.0000E+00
1                                                   STRESS PERIOD NO.   2, LENGTH =   1000.000    
                                                    ----------------------------------------------

                                                    NUMBER OF TIME STEPS =    10

                                                     MULTIPLIER FOR DELT =     1.500

                                                  INITIAL TIME STEP SIZE =   8.823783    
0
     1 ITERATIONS FOR TIME STEP   1 IN STRESS PERIOD  2
0MAXIMUM HEAD CHANGE FOR EACH ITERATION:
0 HEAD CHANGE LAYER,ROW,COL HEAD CHANGE LAYER,ROW,COL HEAD CHANGE LAYER,ROW,COL HEAD CHANGE LAYER,ROW,COL HEAD CHANGE LAYER,ROW,COL
 ------------------------------------------------------------------------------------------------------------------------------------
  -0.6603E-06 (  1,  2,  7)
0
0HEAD/DRAWDOWN PRINTOUT FLAG = 0     TOTAL BUDGET PRINTOUT FLAG = 0     CELL-BY-CELL FLOW TERM FLAG = 0
 REUSING PREVIOUS VALUES OF IOFLG
     1 ITERATIONS FOR TIME STEP   2 IN STRESS PERIOD  2
0MAXIMUM HEAD CHANGE FOR EACH ITERATION:
0 HEAD CHANGE LAYER,ROW,COL HEAD CHANGE LAYER,ROW,COL HEAD CHANGE LAYER,ROW,COL HEAD CHANGE LAYER,ROW,COL HEAD CHANGE LAYER,ROW,COL
 ------------------------------------------------------------------------------------------------------------------------------------
  -0.5437E-06 (  1, 10,  7)
0
0HEAD/DRAWDOWN PRINTOUT FLAG = 0     TOTAL BUDGET PRINTOUT FLAG = 0     CELL-BY-CELL FLOW TERM FLAG = 0
 REUSING PREVIOUS VALUES OF IOFLG
     1 ITERATIONS FOR TIME STEP   3 IN STRESS PERIOD  2
0MAXIMUM HEAD CHANGE FOR EACH ITERATION:
0 HEAD CHANGE LAYER,ROW,COL HEAD CHANGE LAYER,ROW,COL HEAD CHANGE LAYER,ROW,COL HEAD CHANGE LAYER,ROW,COL HEAD CHANGE LAYER,ROW,COL
 ------------------------------------------------------------------------------------------------------------------------------------
  -0.4806E-06 (  1,  8,  7)
0
0HEAD/DRAWDOWN PRINTOUT FLAG = 0     TOTAL BUDGET PRINTOUT FLAG = 0     CELL-BY-CELL FLOW TERM FLAG = 0
 REUSING PREVIOUS VALUES OF IOFLG
     1 ITERATIONS FOR TIME STEP   4 IN STRESS PERIOD  2
0MAXIMUM HEAD CHANGE FOR EACH ITERATION:
0 HEAD CHANGE LAYER,ROW,COL HEAD CHANGE LAYER,ROW,COL HEAD CHANGE LAYER,ROW,COL HEAD CHANGE LAYER,ROW,COL HEAD CHANGE LAYER,ROW,COL
 ------------------------------------------------------------------------------------------------------------------------------------
  -0.4457E-06 (  1,  2,  7)
0
0HEAD/DRAWDOWN PRINTOUT FLAG = 0     TOTAL BUDGET PRINTOUT FLAG = 0     CELL-BY-CELL FLOW TERM FLAG = 0
 REUSING PREVIOUS VALUES OF IOFLG
     1 ITERATIONS FOR TIME STEP   5 IN STRESS PERIOD  2
0MAXIMUM HEAD CHANGE FOR EACH ITERATION:
0 HEAD CHANGE LAYER,ROW,COL HEAD CHANGE LAYER,ROW,COL HEAD CHANGE LAYER,ROW,COL HEAD CHANGE LAYER,ROW,COL HEAD CHANGE LAYER,ROW,COL
 ------------------------------------------------------------------------------------------------------------------------------------
  -0.3831E-06 (  1,  4,  6)
0
0HEAD/DRAWDOWN PRINTOUT FLAG = 0     TOTAL BUDGET PRINTOUT FLAG = 0     CELL-BY-CELL FLOW TERM FLAG = 0
 REUSING PREVIOUS VALUES OF IOFLG
     1 ITERATIONS FOR TIME STEP   6 IN STRESS PERIOD  2
0MAXIMUM HEAD CHANGE FOR EACH ITERATION:
0 HEAD CHANGE LAYER,ROW,COL HEAD CHANGE LAYER,ROW,COL HEAD CHANGE LAYER,ROW,COL HEAD CHANGE LAYER,ROW,COL HEAD CHANGE LAYER,ROW,COL
 ------------------------------------------------------------------------------------------------------------------------------------
  -0.3320E-06 (  1,  6,  7)
0
0HEAD/DRAWDOWN PRINTOUT FLAG = 0     TOTAL BUDGET PRINTOUT FLAG = 0     CELL-BY-CELL FLOW TERM FLAG = 0
 REUSING PREVIOUS VALUES OF IOFLG
     1 ITERATIONS FOR TIME STEP   7 IN STRESS PERIOD  2
0MAXIMUM HEAD CHANGE FOR EACH ITERATION:
0 HEAD CHANGE LAYER,ROW,COL HEAD CHANGE LAYER,ROW,COL HEAD CHANGE LAYER,ROW,COL HEAD CHANGE LAYER,ROW,COL HEAD CHANGE LAYER,ROW,COL
 ------------------------------------------------------------------------------------------------------------------------------------
  -0.2898E-06 (  1,  4,  7)
0
0HEAD/DRAWDOWN PRINTOUT FLAG = 0     TOTAL BUDGET PRINTOUT FLAG = 0     CELL-BY-CELL FLOW TERM FLAG = 0
 REUSING PREVIOUS VALUES OF IOFLG
     1 ITERATIONS FOR TIME STEP   8 IN STRESS PERIOD  2
0MAXIMUM HEAD CHANGE FOR EACH ITERATION:
0 HEAD CHANGE LAYER,ROW,COL HEAD CHANGE LAYER,ROW,COL HEAD CHANGE LAYER,ROW,COL HEAD CHANGE LAYER,ROW,COL HEAD CHANGE LAYER,ROW,COL
 ------------------------------------------------------------------------------------------------------------------------------------
  -0.2516E-06 (  1,  4,  7)
0
0HEAD/DRAWDOWN PRINTOUT FLAG = 0     TOTAL BUDGET PRINTOUT FLAG = 0     CELL-BY-CELL FLOW TERM FLAG = 0
 REUSING PREVIOUS VALUES OF IOFLG
     1 ITERATIONS FOR TIME STEP   9 IN STRESS PERIOD  2
0MAXIMUM HEAD CHANGE FOR EACH ITERATION:
0 HEAD CHANGE LAYER,ROW,COL HEAD CHANGE LAYER,ROW,COL HEAD CHANGE LAYER,ROW,COL HEAD CHANGE LAYER,ROW,COL HEAD CHANGE LAYER,ROW,COL
 ------------------------------------------------------------------------------------------------------------------------------------
  -0.2199E-06 (  1,  4,  7)
0
0HEAD/DRAWDOWN PRINTOUT FLAG = 0     TOTAL BUDGET PRINTOUT FLAG = 0     CELL-BY-CELL FLOW TERM FLAG = 0
 REUSING PREVIOUS VALUES OF IOFLG
     1 ITERATIONS FOR TIME STEP  10 IN STRESS PERIOD  2
0MAXIMUM HEAD CHANGE FOR EACH ITERATION:
0 HEAD CHANGE LAYER,ROW,COL HEAD CHANGE LAYER,ROW,COL HEAD CHANGE LAYER,ROW,COL HEAD CHANGE LAYER,ROW,COL HEAD CHANGE LAYER,ROW,COL
 ------------------------------------------------------------------------------------------------------------------------------------
  -0.1880E-06 (  1,  4,  7)
0
0HEAD/DRAWDOWN PRINTOUT FLAG = 1     TOTAL BUDGET PRINTOUT FLAG = 1     CELL-BY-CELL FLOW TERM FLAG = 0
0OUTPUT FLAGS FOR ALL LAYERS ARE THE SAME:
   HEAD    DRAWDOWN  HEAD  DRAWDOWN
 PRINTOUT  PRINTOUT  SAVE    SAVE
 ----------------------------------
     1         0       0       0
1                      HEAD IN LAYER  1 AT END OF TIME STEP 10 IN STRESS PERIOD  2
           -----------------------------------------------------------------------

           1       2       3       4       5       6       7       8       9      10      11      12
 ........................................................................................................
0  1    0.000   1.000   2.000   3.000   4.000   5.000   6.000   7.000   8.000   9.000  10.000  11.000
0  2    0.000   1.000   2.000   3.000   4.000   5.000   6.000   7.000   8.000   9.000  10.000  11.000
0  3    0.000   1.000   2.000   3.000   4.000   5.000   6.000   7.000   8.000   9.000  10.000  11.000
0  4    0.000   1.000   2.000   3.000   4.000   5.000   6.000   7.000   8.000   9.000  10.000  11.000
0  5    0.000   1.000   2.000   3.000   4.000   5.000   6.000   7.000   8.000   9.000  10.000  11.000
0  6    0.000   1.000   2.000   3.000   4.000   5.000   6.000   7.000   8.000   9.000  10.000  11.000
0  7    0.000   1.000   2.000   3.000   4.000   5.000   6.000   7.000   8.000   9.000  10.000  11.000
0  8    0.000   1.000   2.000   3.000   4.000   5.000   6.000   7.000   8.000   9.000  10.000  11.000
0  9    0.000   1.000   2.000   3.000   4.000   5.000   6.000   7.000   8.000   9.000  10.000  11.000
0 10    0.000   1.000   2.000   3.000   4.000   5.000   6.000   7.000   8.000   9.000  10.000  11.000
1                      HEAD IN LAYER  2 AT END OF TIME STEP 10 IN STRESS PERIOD  2
           -----------------------------------------------------------------------

           1       2       3       4       5       6       7       8       9      10      11      12
 ........................................................................................................
0  1    0.000   1.000   2.000   3.000   4.000   5.000   6.000   7.000   8.000   9.000  10.000  11.000
0  2    0.000   1.000   2.000   3.000   4.000   5.000   6.000   7.000   8.000   9.000  10.000  11.000
0  3    0.000   1.000   2.000   3.000   4.000   5.000   6.000   7.000   8.000   9.000  10.000  11.000
0  4    0.000   1.000   2.000   3.000   4.000   5.000   6.000   7.000   8.000   9.000  10.000  11.000
0  5    0.000   1.000   2.000   3.000   4.000   5.000   6.000   7.000   8.000   9.000  10.000  11.000
0  6    0.000   1.000   2.000   3.000   4.000   5.000   6.000   7.000   8.000   9.000  10.000  11.000
0  7    0.000   1.000   2.000   3.000   4.000   5.000   6.000   7.000   8.000   9.000  10.000  11.000
0  8    0.000   1.000   2.000   3.000   4.000   5.000   6.000   7.000   8.000   9.000  10.000  11.000
0  9    0.000   1.000   2.000   3.000   4.000   5.000   6.000   7.000   8.000   9.000  10.000  11.000
0 10    0.000   1.000   2.000   3.000   4.000   5.000   6.000   7.000   8.000   9.000  10.000  11.000
0


                              VOLUMETRIC BUDGET FOR ENTIRE MODEL AT END OF TIME STEP 10 IN STRESS PERIOD  2
                              -----------------------------------------------------------------------------
0                   CUMULATIVE VOLUMES      L**3                                     RATES FOR THIS TIME STEP      L**3/T
                    ------------------                                               ------------------------

                          IN:                                                                    IN:
                          ---                                                                    ---
                            STORAGE =   0.20000E+06                                                STORAGE =   0.27889E-05
                      CONSTANT HEAD =   0.39683E+08                                          CONSTANT HEAD =    20000.    
                   INTERBED STORAGE =   0.55000E+06                                       INTERBED STORAGE =   0.24470E-04
0                          TOTAL IN =   0.40433E+08                                               TOTAL IN =    20000.    
0                        OUT:                                                                   OUT:
                         ----                                                                   ----
                            STORAGE =   0.00000E+00                                                STORAGE =   0.00000E+00
                      CONSTANT HEAD =   0.40433E+08                                          CONSTANT HEAD =    20000.    
                   INTERBED STORAGE =   0.00000E+00                                       INTERBED STORAGE =   0.00000E+00
0                         TOTAL OUT =   0.40433E+08                                              TOTAL OUT =    20000.    
0                          IN - OUT =   -8.0000                                                   IN - OUT =  -0.78125E-02
0               PERCENT DISCREPANCY =                0.00                              PERCENT DISCREPANCY =                0.00



0


          TIME SUMMARY AT END OF TIME STEP 10 IN STRESS PERIOD  2
                               SECONDS        MINUTES         HOURS          DAYS           YEARS
                           ---------------------------------------------------------------------------
      TIME STEP LENGTH        0.293083E+08    488471.        8141.18        339.216       0.928722    
    STRESS PERIOD TIME        0.864000E+08   0.144000E+07    24000.0        1000.00        2.73785    
 TOTAL SIMULATION TIME        0.172800E+09   0.288000E+07    48000.0        2000.00        5.47570    
1
1                SUBSIDENCE IN LAYER  1 AT END OF TIME STEP 10 IN STRESS PERIOD  2
           -----------------------------------------------------------------------

            1           2           3           4           5           6           7           8           9          10
           11          12
 .............................................................................................................................
0  1   0.0000E+00  5.5000E-03  5.5000E-03  5.5000E-03  5.5000E-03  5.5000E-03  5.5000E-03  5.5000E-03  5.5000E-03  5.5000E-03
       5.5000E-03  0.0000E+00
0  2   0.0000E+00  5.5000E-03  5.5000E-03  5.5000E-03  5.5000E-03  5.5000E-03  5.5000E-03  5.5000E-03  5.5000E-03  5.5000E-03
       5.5000E-03  0.0000E+00
0  3   0.0000E+00  5.5000E-03  5.5000E-03  5.5000E-03  5.5000E-03  5.5000E-03  5.5000E-03  5.5000E-03  5.5000E-03  5.5000E-03
       5.5000E-03  0.0000E+00
0  4   0.0000E+00  5.5000E-03  5.5000E-03  5.5000E-03  5.5000E-03  5.5000E-03  5.5000E-03  5.5000E-03  5.5000E-03  5.5000E-03
       5.5000E-03  0.0000E+00
0  5   0.0000E+00  5.5000E-03  5.5000E-03  5.5000E-03  5.5000E-03  5.5000E-03  5.5000E-03  5.5000E-03  5.5000E-03  5.5000E-03
       5.5000E-03  0.0000E+00
0  6   0.0000E+00  5.5000E-03  5.5000E-03  5.5000E-03  5.5000E-03  5.5000E-03  5.5000E-03  5.5000E-03  5.5000E-03  5.5000E-03
       5.5000E-03  0.0000E+00
0  7   0.0000E+00  5.5000E-03  5.5000E-03  5.5000E-03  5.5000E-03  5.5000E-03  5.5000E-03  5.5000E-03  5.5000E-03  5.5000E-03
       5.5000E-03  0.0000E+00
0  8   0.0000E+00  5.5000E-03  5.5000E-03  5.5000E-03  5.5000E-03  5.5000E-03  5.5000E-03  5.5000E-03  5.5000E-03  5.5000E-03
       5.5000E-03  0.0000E+00
0  9   0.0000E+00  5.5000E-03  5.5000E-03  5.5000E-03  5.5000E-03  5.5000E-03  5.5000E-03  5.5000E-03  5.5000E-03  5.5000E-03
       5.5000E-03  0.0000E+00
0 10   0.0000E+00  5.5000E-03  5.5000E-03  5.5000E-03  5.5000E-03  5.5000E-03  5.5000E-03  5.5000E-03  5.5000E-03  5.5000E-03
       5.5000E-03  0.0000E+00
1                                                   STRESS PERIOD NO.   3, LENGTH =   1000.000    
                                                    ----------------------------------------------

                                                    NUMBER OF TIME STEPS =    10

                                                     MULTIPLIER FOR DELT =     1.500

                                                  INITIAL TIME STEP SIZE =   8.823783    
0
     1 ITERATIONS FOR TIME STEP   1 IN STRESS PERIOD  3
0MAXIMUM HEAD CHANGE FOR EACH ITERATION:
0 HEAD CHANGE LAYER,ROW,COL HEAD CHANGE LAYER,ROW,COL HEAD CHANGE LAYER,ROW,COL HEAD CHANGE LAYER,ROW,COL HEAD CHANGE LAYER,ROW,COL
 ------------------------------------------------------------------------------------------------------------------------------------
  -0.1908E-06 (  1,  2,  7)
0
0HEAD/DRAWDOWN PRINTOUT FLAG = 0     TOTAL BUDGET PRINTOUT FLAG = 0     CELL-BY-CELL FLOW TERM FLAG = 0
 REUSING PREVIOUS VALUES OF IOFLG
     1 ITERATIONS FOR TIME STEP   2 IN STRESS PERIOD  3
0MAXIMUM HEAD CHANGE FOR EACH ITERATION:
0 HEAD CHANGE LAYER,ROW,COL HEAD CHANGE LAYER,ROW,COL HEAD CHANGE LAYER,ROW,COL HEAD CHANGE LAYER,ROW,COL HEAD CHANGE LAYER,ROW,COL
 ------------------------------------------------------------------------------------------------------------------------------------
  -0.1458E-06 (  1,  3,  6)
0
0HEAD/DRAWDOWN PRINTOUT FLAG = 0     TOTAL BUDGET PRINTOUT FLAG = 0     CELL-BY-CELL FLOW TERM FLAG = 0
 REUSING PREVIOUS VALUES OF IOFLG
     1 ITERATIONS FOR TIME STEP   3 IN STRESS PERIOD  3
0MAXIMUM HEAD CHANGE FOR EACH ITERATION:
0 HEAD CHANGE LAYER,ROW,COL HEAD CHANGE LAYER,ROW,COL HEAD CHANGE LAYER,ROW,COL HEAD CHANGE LAYER,ROW,COL HEAD CHANGE LAYER,ROW,COL
 ------------------------------------------------------------------------------------------------------------------------------------
  -0.1774E-06 (  1, 10,  8)
0
0HEAD/DRAWDOWN PRINTOUT FLAG = 0     TOTAL BUDGET PRINTOUT FLAG = 0     CELL-BY-CELL FLOW TERM FLAG = 0
 REUSING PREVIOUS VALUES OF IOFLG
     1 ITERATIONS FOR TIME STEP   4 IN STRESS PERIOD  3
0MAXIMUM HEAD CHANGE FOR EACH ITERATION:
0 HEAD CHANGE LAYER,ROW,COL HEAD CHANGE LAYER,ROW,COL HEAD CHANGE LAYER,ROW,COL HEAD CHANGE LAYER,ROW,COL HEAD CHANGE LAYER,ROW,COL
 ------------------------------------------------------------------------------------------------------------------------------------
  -0.1272E-06 (  1,  6,  6)
0
0HEAD/DRAWDOWN PRINTOUT FLAG = 0     TOTAL BUDGET PRINTOUT FLAG = 0     CELL-BY-CELL FLOW TERM FLAG = 0
 REUSING PREVIOUS VALUES OF IOFLG
     1 ITERATIONS FOR TIME STEP   5 IN STRESS PERIOD  3
0MAXIMUM HEAD CHANGE FOR EACH ITERATION:
0 HEAD CHANGE LAYER,ROW,COL HEAD CHANGE LAYER,ROW,COL HEAD CHANGE LAYER,ROW,COL HEAD CHANGE LAYER,ROW,COL HEAD CHANGE LAYER,ROW,COL
 ------------------------------------------------------------------------------------------------------------------------------------
  -0.9164E-07 (  1,  4,  5)
0
0HEAD/DRAWDOWN PRINTOUT FLAG = 0     TOTAL BUDGET PRINTOUT FLAG = 0     CELL-BY-CELL FLOW TERM FLAG = 0
 REUSING PREVIOUS VALUES OF IOFLG
     1 ITERATIONS FOR TIME STEP   6 IN STRESS PERIOD  3
0MAXIMUM HEAD CHANGE FOR EACH ITERATION:
0 HEAD CHANGE LAYER,ROW,COL HEAD CHANGE LAYER,ROW,COL HEAD CHANGE LAYER,ROW,COL HEAD CHANGE LAYER,ROW,COL HEAD CHANGE LAYER,ROW,COL
 ------------------------------------------------------------------------------------------------------------------------------------
  -0.7848E-07 (  1,  5,  6)
0
0HEAD/DRAWDOWN PRINTOUT FLAG = 0     TOTAL BUDGET PRINTOUT FLAG = 0     CELL-BY-CELL FLOW TERM FLAG = 0
 REUSING PREVIOUS VALUES OF IOFLG
     1 ITERATIONS FOR TIME STEP   7 IN STRESS PERIOD  3
0MAXIMUM HEAD CHANGE FOR EACH ITERATION:
0 HEAD CHANGE LAYER,ROW,COL HEAD CHANGE LAYER,ROW,COL HEAD CHANGE LAYER,ROW,COL HEAD CHANGE LAYER,ROW,COL HEAD CHANGE LAYER,ROW,COL
 ------------------------------------------------------------------------------------------------------------------------------------
  -0.6746E-07 (  1,  5,  6)
0
0HEAD/DRAWDOWN PRINTOUT FLAG = 0     TOTAL BUDGET PRINTOUT FLAG = 0     CELL-BY-CELL FLOW TERM FLAG = 0
 REUSING PREVIOUS VALUES OF IOFLG
     1 ITERATIONS FOR TIME STEP   8 IN STRESS PERIOD  3
0MAXIMUM HEAD CHANGE FOR EACH ITERATION:
0 HEAD CHANGE LAYER,ROW,COL HEAD CHANGE LAYER,ROW,COL HEAD CHANGE LAYER,ROW,COL HEAD CHANGE LAYER,ROW,COL HEAD CHANGE LAYER,ROW,COL
 ------------------------------------------------------------------------------------------------------------------------------------
  -0.5791E-07 (  1,  5,  6)
0
0HEAD/DRAWDOWN PRINTOUT FLAG = 0     TOTAL BUDGET PRINTOUT FLAG = 0     CELL-BY-CELL FLOW TERM FLAG = 0
 REUSING PREVIOUS VALUES OF IOFLG
     1 ITERATIONS FOR TIME STEP   9 IN STRESS PERIOD  3
0MAXIMUM HEAD CHANGE FOR EACH ITERATION:
0 HEAD CHANGE LAYER,ROW,COL HEAD CHANGE LAYER,ROW,COL HEAD CHANGE LAYER,ROW,COL HEAD CHANGE LAYER,ROW,COL HEAD CHANGE LAYER,ROW,COL
 ------------------------------------------------------------------------------------------------------------------------------------
  -0.5155E-07 (  1,  4,  6)
0
0HEAD/DRAWDOWN PRINTOUT FLAG = 0     TOTAL BUDGET PRINTOUT FLAG = 0     CELL-BY-CELL FLOW TERM FLAG = 0
 REUSING PREVIOUS VALUES OF IOFLG
     1 ITERATIONS FOR TIME STEP  10 IN STRESS PERIOD  3
0MAXIMUM HEAD CHANGE FOR EACH ITERATION:
0 HEAD CHANGE LAYER,ROW,COL HEAD CHANGE LAYER,ROW,COL HEAD CHANGE LAYER,ROW,COL HEAD CHANGE LAYER,ROW,COL HEAD CHANGE LAYER,ROW,COL
 ------------------------------------------------------------------------------------------------------------------------------------
  -0.4188E-07 (  1,  4,  6)
0
0HEAD/DRAWDOWN PRINTOUT FLAG = 1     TOTAL BUDGET PRINTOUT FLAG = 1     CELL-BY-CELL FLOW TERM FLAG = 0
0OUTPUT FLAGS FOR ALL LAYERS ARE THE SAME:
   HEAD    DRAWDOWN  HEAD  DRAWDOWN
 PRINTOUT  PRINTOUT  SAVE    SAVE
 ----------------------------------
     1         0       0       0
1                      HEAD IN LAYER  1 AT END OF TIME STEP 10 IN STRESS PERIOD  3
           -----------------------------------------------------------------------

           1       2       3       4       5       6       7       8       9      10      11      12
 ........................................................................................................
0  1    0.000   1.000   2.000   3.000   4.000   5.000   6.000   7.000   8.000   9.000  10.000  11.000
0  2    0.000   1.000   2.000   3.000   4.000   5.000   6.000   7.000   8.000   9.000  10.000  11.000
0  3    0.000   1.000   2.000   3.000   4.000   5.000   6.000   7.000   8.000   9.000  10.000  11.000
0  4    0.000   1.000   2.000   3.000   4.000   5.000   6.000   7.000   8.000   9.000  10.000  11.000
0  5    0.000   1.000   2.000   3.000   4.000   5.000   6.000   7.000   8.000   9.000  10.000  11.000
0  6    0.000   1.000   2.000   3.000   4.000   5.000   6.000   7.000   8.000   9.000  10.000  11.000
0  7    0.000   1.000   2.000   3.000   4.000   5.000   6.000   7.000   8.000   9.000  10.000  11.000
0  8    0.000   1.000   2.000   3.000   4.000   5.000   6.000   7.000   8.000   9.000  10.000  11.000
0  9    0.000   1.000   2.000   3.000   4.000   5.000   6.000   7.000   8.000   9.000  10.000  11.000
0 10    0.000   1.000   2.000   3.000   4.000   5.000   6.000   7.000   8.000   9.000  10.000  11.000
1                      HEAD IN LAYER  2 AT END OF TIME STEP 10 IN STRESS PERIOD  3
           -----------------------------------------------------------------------

           1       2       3       4       5       6       7       8       9      10      11      12
 ........................................................................................................
0  1    0.000   1.000   2.000   3.000   4.000   5.000   6.000   7.000   8.000   9.000  10.000  11.000
0  2    0.000   1.000   2.000   3.000   4.000   5.000   6.000   7.000   8.000   9.000  10.000  11.000
0  3    0.000   1.000   2.000   3.000   4.000   5.000   6.000   7.000   8.000   9.000  10.000  11.000
0  4    0.000   1.000   2.000   3.000   4.000   5.000   6.000   7.000   8.000   9.000  10.000  11.000
0  5    0.000   1.000   2.000   3.000   4.000   5.000   6.000   7.000   8.000   9.000  10.000  11.000
0  6    0.000   1.000   2.000   3.000   4.000   5.000   6.000   7.000   8.000   9.000  10.000  11.000
0  7    0.000   1.000   2.000   3.000   4.000   5.000   6.000   7.000   8.000   9.000  10.000  11.000
0  8    0.000   1.000   2.000   3.000   4.000   5.000   6.000   7.000   8.000   9.000  10.000  11.000
0  9    0.000   1.000   2.000   3.000   4.000   5.000   6.000   7.000   8.000   9.000  10.000  11.000
0 10    0.000   1.000   2.000   3.000   4.000   5.000   6.000   7.000   8.000   9.000  10.000  11.000
0


                              VOLUMETRIC BUDGET FOR ENTIRE MODEL AT END OF TIME STEP 10 IN STRESS PERIOD  3
                              -----------------------------------------------------------------------------
0                   CUMULATIVE VOLUMES      L**3                                     RATES FOR THIS TIME STEP      L**3/T
                    ------------------                                               ------------------------

                          IN:                                                                    IN:
                          ---                                                                    ---
                            STORAGE =   0.20000E+06                                                STORAGE =   0.71972E-06
                      CONSTANT HEAD =   0.59683E+08                                          CONSTANT HEAD =    20000.    
                   INTERBED STORAGE =   0.55000E+06                                       INTERBED STORAGE =   0.57578E-05
0                          TOTAL IN =   0.60433E+08                                               TOTAL IN =    20000.    
0                        OUT:                                                                   OUT:
                         ----                                                                   ----
                            STORAGE =   0.00000E+00                                                STORAGE =   0.00000E+00
                      CONSTANT HEAD =   0.60433E+08                                          CONSTANT HEAD =    20000.    
                   INTERBED STORAGE =   0.00000E+00                                       INTERBED STORAGE =   0.00000E+00
0                         TOTAL OUT =   0.60433E+08                                              TOTAL OUT =    20000.    
0                          IN - OUT =   -8.0000                                                   IN - OUT =   0.00000E+00
0               PERCENT DISCREPANCY =                0.00                              PERCENT DISCREPANCY =                0.00



0


          TIME SUMMARY AT END OF TIME STEP 10 IN STRESS PERIOD  3
                               SECONDS        MINUTES         HOURS          DAYS           YEARS
                           ---------------------------------------------------------------------------
      TIME STEP LENGTH        0.293083E+08    488471.        8141.18        339.216       0.928722    
    STRESS PERIOD TIME        0.864000E+08   0.144000E+07    24000.0        1000.00        2.73785    
 TOTAL SIMULATION TIME        0.259200E+09   0.432000E+07    72000.0        3000.00        8.21355    
1
1                SUBSIDENCE IN LAYER  1 AT END OF TIME STEP 10 IN STRESS PERIOD  3
           -----------------------------------------------------------------------

            1           2           3           4           5           6           7           8           9          10
           11          12
 .............................................................................................................................
0  1   0.0000E+00  5.5000E-03  5.5000E-03  5.5000E-03  5.5000E-03  5.5000E-03  5.5000E-03  5.5000E-03  5.5000E-03  5.5000E-03
       5.5000E-03  0.0000E+00
0  2   0.0000E+00  5.5000E-03  5.5000E-03  5.5000E-03  5.5000E-03  5.5000E-03  5.5000E-03  5.5000E-03  5.5000E-03  5.5000E-03
       5.5000E-03  0.0000E+00
0  3   0.0000E+00  5.5000E-03  5.5000E-03  5.5000E-03  5.5000E-03  5.5000E-03  5.5000E-03  5.5000E-03  5.5000E-03  5.5000E-03
       5.5000E-03  0.0000E+00
0  4   0.0000E+00  5.5000E-03  5.5000E-03  5.5000E-03  5.5000E-03  5.5000E-03  5.5000E-03  5.5000E-03  5.5000E-03  5.5000E-03
       5.5000E-03  0.0000E+00
0  5   0.0000E+00  5.5000E-03  5.5000E-03  5.5000E-03  5.5000E-03  5.5000E-03  5.5000E-03  5.5000E-03  5.5000E-03  5.5000E-03
       5.5000E-03  0.0000E+00
0  6   0.0000E+00  5.5000E-03  5.5000E-03  5.5000E-03  5.5000E-03  5.5000E-03  5.5000E-03  5.5000E-03  5.5000E-03  5.5000E-03
       5.5000E-03  0.0000E+00
0  7   0.0000E+00  5.5000E-03  5.5000E-03  5.5000E-03  5.5000E-03  5.5000E-03  5.5000E-03  5.5000E-03  5.5000E-03  5.5000E-03
       5.5000E-03  0.0000E+00
0  8   0.0000E+00  5.5000E-03  5.5000E-03  5.5000E-03  5.5000E-03  5.5000E-03  5.5000E-03  5.5000E-03  5.5000E-03  5.5000E-03
       5.5000E-03  0.0000E+00
0  9   0.0000E+00  5.5000E-03  5.5000E-03  5.5000E-03  5.5000E-03  5.5000E-03  5.5000E-03  5.5000E-03  5.5000E-03  5.5000E-03
       5.5000E-03  0.0000E+00
0 10   0.0000E+00  5.5000E-03  5.5000E-03  5.5000E-03  5.5000E-03  5.5000E-03  5.5000E-03  5.5000E-03  5.5000E-03  5.5000E-03
       5.5000E-03  0.0000E+00
