                                  MODFLOW-2000
      U.S. GEOLOGICAL SURVEY MODULAR FINITE-DIFFERENCE GROUND-WATER FLOW MODEL
                           VERSION 1.16.00 03/28/2006


 This model run combines GLOBAL and LIST output into this single file.

 GLOBAL LISTING FILE: l1a2k_rev.lst
                         UNIT    1

 OPENING l1a2k.ba6
 FILE TYPE:BAS6   UNIT    7   STATUS:OLD    
 FORMAT:FORMATTED              ACCESS:SEQUENTIAL          

 OPENING l1a2k.bc6
 FILE TYPE:BCF6   UNIT   10   STATUS:OLD    
 FORMAT:FORMATTED              ACCESS:SEQUENTIAL          

 OPENING l1a2k.evt
 FILE TYPE:EVT   UNIT   11   STATUS:OLD    
 FORMAT:FORMATTED              ACCESS:SEQUENTIAL          

 OPENING l1a2k.rch
 FILE TYPE:RCH   UNIT   12   STATUS:OLD    
 FORMAT:FORMATTED              ACCESS:SEQUENTIAL          

 OPENING l1a2k.sip
 FILE TYPE:SIP   UNIT   13   STATUS:OLD    
 FORMAT:FORMATTED              ACCESS:SEQUENTIAL          

 OPENING l1a2k.oc
 FILE TYPE:OC   UNIT   17   STATUS:OLD    
 FORMAT:FORMATTED              ACCESS:SEQUENTIAL          

 OPENING l1a2k.lak
 FILE TYPE:LAK   UNIT   16   STATUS:OLD    
 FORMAT:FORMATTED              ACCESS:SEQUENTIAL          

 OPENING l1a2k.dis
 FILE TYPE:DIS   UNIT   14   STATUS:OLD    
 FORMAT:FORMATTED              ACCESS:SEQUENTIAL          

 OPENING l1a2k.fhb
 FILE TYPE:FHB   UNIT   21   STATUS:OLD    
 FORMAT:FORMATTED              ACCESS:SEQUENTIAL          

 OPENING l1a2k.gag
 FILE TYPE:GAGE   UNIT   33   STATUS:OLD    
 FORMAT:FORMATTED              ACCESS:SEQUENTIAL          

 OPENING l1a2k_rev.got
 FILE TYPE:DATA   UNIT   37   STATUS:UNKNOWN
 FORMAT:FORMATTED              ACCESS:SEQUENTIAL          


 DISCRETIZATION INPUT DATA READ FROM UNIT   14
    5 LAYERS        17 ROWS        17 COLUMNS
    1 STRESS PERIOD(S) IN SIMULATION
 MODEL TIME UNIT IS DAYS
 MODEL LENGTH UNIT IS UNDEFINED
 THE GROUND-WATER TRANSPORT PROCESS IS INACTIVE

 THE OBSERVATION PROCESS IS INACTIVE
 THE SENSITIVITY PROCESS IS INACTIVE
 THE PARAMETER-ESTIMATION PROCESS IS INACTIVE

 MODE: FORWARD

  Confining bed flag for each layer:
   0   0   0   0   0

      13039  ELEMENTS OF GX ARRAY USED OUT OF      13039
       1445  ELEMENTS OF GZ ARRAY USED OUT OF       1445
       1445  ELEMENTS OF IG ARRAY USED OUT OF       1445



                               DELR
 READING ON UNIT   14 WITH FORMAT: (10F13.0)           
   250.00       1000.0       1000.0       1000.0       1000.0       1000.0       500.00       500.00       500.00       500.00    
   500.00       1000.0       1000.0       1000.0       1000.0       1000.0       250.00    



                               DELC
 READING ON UNIT   14 WITH FORMAT: (10F13.0)           
   250.00       1000.0       1000.0       1000.0       1000.0       1000.0       500.00       500.00       500.00       500.00    
   500.00       1000.0       1000.0       1000.0       1000.0       1000.0       250.00    

 TOP ELEVATION OF LAYER 1 =   500.000    

   MODEL LAYER BOTTOM EL. =   107.000     FOR LAYER   1

   MODEL LAYER BOTTOM EL. =   97.0000     FOR LAYER   2

   MODEL LAYER BOTTOM EL. =   87.0000     FOR LAYER   3

   MODEL LAYER BOTTOM EL. =   77.0000     FOR LAYER   4

   MODEL LAYER BOTTOM EL. =   67.0000     FOR LAYER   5


 STRESS PERIOD     LENGTH       TIME STEPS     MULTIPLIER FOR DELT    SS FLAG
 ----------------------------------------------------------------------------
        1         5000.000        100                    1.020         TR

 TRANSIENT SIMULATION




 SIP5 -- STRONGLY IMPLICIT PROCEDURE SOLUTION PACKAGE
                    VERSION 5, 9/1/93 INPUT READ FROM UNIT   13
 MAXIMUM OF 500 ITERATIONS ALLOWED FOR CLOSURE
  5 ITERATION PARAMETERS
       6285 ELEMENTS IN X ARRAY ARE USED BY SIP
       1500 ELEMENTS IN IX ARRAY ARE USED BY SIP

       6285  ELEMENTS OF X ARRAY USED OUT OF       6285
          0  ELEMENTS OF Z ARRAY USED OUT OF          1
       1500  ELEMENTS OF IX ARRAY USED OUT OF       1500
          0  ELEMENTS OF XHS ARRAY USED OUT OF          1



          SOLUTION BY THE STRONGLY IMPLICIT PROCEDURE
          -------------------------------------------
 MAXIMUM ITERATIONS ALLOWED FOR CLOSURE =      500
                 ACCELERATION PARAMETER =     1.0000    
      HEAD CHANGE CRITERION FOR CLOSURE =    0.10000E-03
      SIP HEAD CHANGE PRINTOUT INTERVAL =        1

     CALCULATE ITERATION PARAMETERS FROM MODEL CALCULATED WSEED
 
 #Hypothetical simulator of lake and surficial aquifer interaction. ------------ 
 #Shows convergence to equilibrium in transient mode.                            
    5 LAYERS        17 ROWS        17 COLUMNS
    1 STRESS PERIOD(S) IN SIMULATION

 BAS6 -- BASIC PACKAGE, VERSION 6, 1/11/2000 INPUT READ FROM UNIT    7
         25 ELEMENTS IN IR ARRAY ARE USED BY BAS

 BCF6 -- BLOCK-CENTERED FLOW PACKAGE, VERSION 6, 1/11/2000
         INPUT READ FROM UNIT 10
 TRANSIENT SIMULATION
 HEAD AT CELLS THAT CONVERT TO DRY=   0.0000    
 WETTING CAPABILITY IS ACTIVE
 WETTING FACTOR=   1.00000     WETTING ITERATION INTERVAL=   1
 FLAG THAT SPECIFIES THE EQUATION TO USE FOR HEAD AT WETTED CELLS=   0
      LAYER  LAYER-TYPE CODE     INTERBLOCK T
      --------------------------------------------
         1            1          0 -- HARMONIC    
         2            3          0 -- HARMONIC    
         3            3          0 -- HARMONIC    
         4            3          0 -- HARMONIC    
         5            3          0 -- HARMONIC    
       6652 ELEMENTS IN RX ARRAY ARE USED BY BCF

 EVT6 -- EVAPOTRANSPIRATION PACKAGE, VERSION 6, 12/14/2000
         INPUT READ FROM UNIT   11
 No named parameters
 OPTION 3 -- EVAPOTRANSPIRATION FROM HIGHEST ACTIVE NODE IN EACH VERTICAL COLUMN
        867 ELEMENTS IN RX ARRAY ARE USED BY EVT
        289 ELEMENTS IN IR ARRAY ARE USED BY EVT

 RCH6 -- RECHARGE PACKAGE, VERSION 6, 1/11/2000 INPUT READ FROM UNIT   12
 No named parameters
 OPTION 3 -- RECHARGE TO HIGHEST ACTIVE NODE IN EACH VERTICAL COLUMN
        289 ELEMENTS IN RX ARRAY ARE USED BY RCH
        289 ELEMENTS IN IR ARRAY ARE USED BY RCH
0FHB1 -- SPECIFIED FLOW PACKAGE, VERSION 1,12/3/96 INPUT READ FROM 21
  SPECIFIED FLOW AND HEAD VALUES WILL REMAIN CONSTANT FOR ENTIRE SIMULATION.
 FLOW WILL BE SPECIFIED AT A TOTAL OF    0 CELLS.
 HEAD WILL BE SPECIFIED AT A TOTAL OF  320 CELLS.
 FHB STEADY-STATE OPTION FLAG WILL BE IGNORED,
 AT LEAST ONE STRESS PERIOD IS TRANSIENT.
  0 AUXILIARY VARIABLES FOR SPECIFIED-FLOW CELLS WILL
  BE DEFINED BY FHB FOR USE BY OTHER PACKAGES.
  0 AUXILIARY VARIABLES FOR SPECIFIED-HEAD CELLS WILL
  BE DEFINED BY FHB FOR USE BY OTHER PACKAGES.
      321 ELEMENTS IN RX ARRAY ARE USED FOR FHB1
     1280 ELEMENTS IN IR ARRAY ARE USED FOR FHB1

 LAK3 -- LAKE PACKAGE, VERSION 3, 5/20/2006 INPUT READ FROM UNIT 16


 LAKE PACKAGE HAS BEEN MODIFIED TO ITERATIVELY SOLVE FOR LAKE DEPTH DURING TRANSIENT STRESS PERIODS:
 MAXIMUM NUMBER OF ITERATIONS (NSSITR) =   100
 CLOSURE CRITERIA FOR LAKE STAGE IS 1.000000E-04


 SPACE ALLOCATION FOR    722 GRID CELL FACES ADJACENT TOLAKES
 MAXIMUM NUMBER OF LAKES IS  1 FOR THIS SIMULATION
 CELL-BY-CELL SEEPAGES WILL NOT BE PRINTED OR SAVED

 THETA =       1.00  METHOD FOR UPDATING LAKE STAGES INITERATIONS OF THE SOLUTION FOR AQUIFER HEADS.
                    0.0 IS EXPLICIT, 0.5 IS CENTERED, AND 1.0 IS FULLY IMPLICIT.
       3263 ELEMENTS IN RX ARRAY ARE USED BY LAK
       6511 ELEMENTS IN IR ARRAY ARE USED BY LAK
          0 ELEMENTS IN RZ ARRAY ARE USED BY LAK
          0 ELEMENTS IN RX ARRAY ARE USED BY GAGE
         11 ELEMENTS IN IR ARRAY ARE USED BY GAGE

      11393  ELEMENTS OF RX ARRAY USED OUT OF      11393
       8406  ELEMENTS OF IR ARRAY USED OUT OF       8406
1
 #Hypothetical simulator of lake and surficial aquifer interaction. ------------ 
 #Shows convergence to equilibrium in transient mode.                            



                     BOUNDARY ARRAY FOR LAYER   1
 READING ON UNIT    7 WITH FORMAT: (20I4)              

        1   2   3   4   5   6   7   8   9  10  11  12  13  14  15  16  17
 ........................................................................
   1   -1  -1  -1  -1  -1  -1  -1  -1  -1  -1  -1  -1  -1  -1  -1  -1  -1
   2   -1   1   1   1   1   1   1   1   1   1   1   1   1   1   1   1  -1
   3   -1   1   1   1   1   1   1   1   1   1   1   1   1   1   1   1  -1
   4   -1   1   1   1   1   1   1   1   1   1   1   1   1   1   1   1  -1
   5   -1   1   1   1   1   1   1   1   1   1   1   1   1   1   1   1  -1
   6   -1   1   1   1   1   1   1   1   1   1   1   1   1   1   1   1  -1
   7   -1   1   1   1   1   1   0   0   0   0   0   1   1   1   1   1  -1
   8   -1   1   1   1   1   1   0   0   0   0   0   1   1   1   1   1  -1
   9   -1   1   1   1   1   1   0   0   0   0   0   1   1   1   1   1  -1
  10   -1   1   1   1   1   1   0   0   0   0   0   1   1   1   1   1  -1
  11   -1   1   1   1   1   1   0   0   0   0   0   1   1   1   1   1  -1
  12   -1   1   1   1   1   1   1   1   1   1   1   1   1   1   1   1  -1
  13   -1   1   1   1   1   1   1   1   1   1   1   1   1   1   1   1  -1
  14   -1   1   1   1   1   1   1   1   1   1   1   1   1   1   1   1  -1
  15   -1   1   1   1   1   1   1   1   1   1   1   1   1   1   1   1  -1
  16   -1   1   1   1   1   1   1   1   1   1   1   1   1   1   1   1  -1
  17   -1  -1  -1  -1  -1  -1  -1  -1  -1  -1  -1  -1  -1  -1  -1  -1  -1



                     BOUNDARY ARRAY FOR LAYER   2
 READING ON UNIT    7 WITH FORMAT: (20I4)              

        1   2   3   4   5   6   7   8   9  10  11  12  13  14  15  16  17
 ........................................................................
   1   -1  -1  -1  -1  -1  -1  -1  -1  -1  -1  -1  -1  -1  -1  -1  -1  -1
   2   -1   1   1   1   1   1   1   1   1   1   1   1   1   1   1   1  -1
   3   -1   1   1   1   1   1   1   1   1   1   1   1   1   1   1   1  -1
   4   -1   1   1   1   1   1   1   1   1   1   1   1   1   1   1   1  -1
   5   -1   1   1   1   1   1   1   1   1   1   1   1   1   1   1   1  -1
   6   -1   1   1   1   1   1   1   1   1   1   1   1   1   1   1   1  -1
   7   -1   1   1   1   1   1   1   1   1   1   1   1   1   1   1   1  -1
   8   -1   1   1   1   1   1   1   0   0   0   1   1   1   1   1   1  -1
   9   -1   1   1   1   1   1   1   0   0   0   1   1   1   1   1   1  -1
  10   -1   1   1   1   1   1   1   0   0   0   1   1   1   1   1   1  -1
  11   -1   1   1   1   1   1   1   1   1   1   1   1   1   1   1   1  -1
  12   -1   1   1   1   1   1   1   1   1   1   1   1   1   1   1   1  -1
  13   -1   1   1   1   1   1   1   1   1   1   1   1   1   1   1   1  -1
  14   -1   1   1   1   1   1   1   1   1   1   1   1   1   1   1   1  -1
  15   -1   1   1   1   1   1   1   1   1   1   1   1   1   1   1   1  -1
  16   -1   1   1   1   1   1   1   1   1   1   1   1   1   1   1   1  -1
  17   -1  -1  -1  -1  -1  -1  -1  -1  -1  -1  -1  -1  -1  -1  -1  -1  -1



                     BOUNDARY ARRAY FOR LAYER   3
 READING ON UNIT    7 WITH FORMAT: (20I4)              

        1   2   3   4   5   6   7   8   9  10  11  12  13  14  15  16  17
 ........................................................................
   1   -1  -1  -1  -1  -1  -1  -1  -1  -1  -1  -1  -1  -1  -1  -1  -1  -1
   2   -1   1   1   1   1   1   1   1   1   1   1   1   1   1   1   1  -1
   3   -1   1   1   1   1   1   1   1   1   1   1   1   1   1   1   1  -1
   4   -1   1   1   1   1   1   1   1   1   1   1   1   1   1   1   1  -1
   5   -1   1   1   1   1   1   1   1   1   1   1   1   1   1   1   1  -1
   6   -1   1   1   1   1   1   1   1   1   1   1   1   1   1   1   1  -1
   7   -1   1   1   1   1   1   1   1   1   1   1   1   1   1   1   1  -1
   8   -1   1   1   1   1   1   1   1   1   1   1   1   1   1   1   1  -1
   9   -1   1   1   1   1   1   1   1   1   1   1   1   1   1   1   1  -1
  10   -1   1   1   1   1   1   1   1   1   1   1   1   1   1   1   1  -1
  11   -1   1   1   1   1   1   1   1   1   1   1   1   1   1   1   1  -1
  12   -1   1   1   1   1   1   1   1   1   1   1   1   1   1   1   1  -1
  13   -1   1   1   1   1   1   1   1   1   1   1   1   1   1   1   1  -1
  14   -1   1   1   1   1   1   1   1   1   1   1   1   1   1   1   1  -1
  15   -1   1   1   1   1   1   1   1   1   1   1   1   1   1   1   1  -1
  16   -1   1   1   1   1   1   1   1   1   1   1   1   1   1   1   1  -1
  17   -1  -1  -1  -1  -1  -1  -1  -1  -1  -1  -1  -1  -1  -1  -1  -1  -1



                     BOUNDARY ARRAY FOR LAYER   4
 READING ON UNIT    7 WITH FORMAT: (20I4)              

        1   2   3   4   5   6   7   8   9  10  11  12  13  14  15  16  17
 ........................................................................
   1   -1  -1  -1  -1  -1  -1  -1  -1  -1  -1  -1  -1  -1  -1  -1  -1  -1
   2   -1   1   1   1   1   1   1   1   1   1   1   1   1   1   1   1  -1
   3   -1   1   1   1   1   1   1   1   1   1   1   1   1   1   1   1  -1
   4   -1   1   1   1   1   1   1   1   1   1   1   1   1   1   1   1  -1
   5   -1   1   1   1   1   1   1   1   1   1   1   1   1   1   1   1  -1
   6   -1   1   1   1   1   1   1   1   1   1   1   1   1   1   1   1  -1
   7   -1   1   1   1   1   1   1   1   1   1   1   1   1   1   1   1  -1
   8   -1   1   1   1   1   1   1   1   1   1   1   1   1   1   1   1  -1
   9   -1   1   1   1   1   1   1   1   1   1   1   1   1   1   1   1  -1
  10   -1   1   1   1   1   1   1   1   1   1   1   1   1   1   1   1  -1
  11   -1   1   1   1   1   1   1   1   1   1   1   1   1   1   1   1  -1
  12   -1   1   1   1   1   1   1   1   1   1   1   1   1   1   1   1  -1
  13   -1   1   1   1   1   1   1   1   1   1   1   1   1   1   1   1  -1
  14   -1   1   1   1   1   1   1   1   1   1   1   1   1   1   1   1  -1
  15   -1   1   1   1   1   1   1   1   1   1   1   1   1   1   1   1  -1
  16   -1   1   1   1   1   1   1   1   1   1   1   1   1   1   1   1  -1
  17   -1  -1  -1  -1  -1  -1  -1  -1  -1  -1  -1  -1  -1  -1  -1  -1  -1



                     BOUNDARY ARRAY FOR LAYER   5
 READING ON UNIT    7 WITH FORMAT: (20I4)              

        1   2   3   4   5   6   7   8   9  10  11  12  13  14  15  16  17
 ........................................................................
   1   -1  -1  -1  -1  -1  -1  -1  -1  -1  -1  -1  -1  -1  -1  -1  -1  -1
   2   -1   1   1   1   1   1   1   1   1   1   1   1   1   1   1   1  -1
   3   -1   1   1   1   1   1   1   1   1   1   1   1   1   1   1   1  -1
   4   -1   1   1   1   1   1   1   1   1   1   1   1   1   1   1   1  -1
   5   -1   1   1   1   1   1   1   1   1   1   1   1   1   1   1   1  -1
   6   -1   1   1   1   1   1   1   1   1   1   1   1   1   1   1   1  -1
   7   -1   1   1   1   1   1   1   1   1   1   1   1   1   1   1   1  -1
   8   -1   1   1   1   1   1   1   1   1   1   1   1   1   1   1   1  -1
   9   -1   1   1   1   1   1   1   1   1   1   1   1   1   1   1   1  -1
  10   -1   1   1   1   1   1   1   1   1   1   1   1   1   1   1   1  -1
  11   -1   1   1   1   1   1   1   1   1   1   1   1   1   1   1   1  -1
  12   -1   1   1   1   1   1   1   1   1   1   1   1   1   1   1   1  -1
  13   -1   1   1   1   1   1   1   1   1   1   1   1   1   1   1   1  -1
  14   -1   1   1   1   1   1   1   1   1   1   1   1   1   1   1   1  -1
  15   -1   1   1   1   1   1   1   1   1   1   1   1   1   1   1   1  -1
  16   -1   1   1   1   1   1   1   1   1   1   1   1   1   1   1   1  -1
  17   -1  -1  -1  -1  -1  -1  -1  -1  -1  -1  -1  -1  -1  -1  -1  -1  -1

 AQUIFER HEAD WILL BE SET TO -999.00     AT ALL NO-FLOW NODES (IBOUND=0).

             INITIAL HEAD =   115.000     FOR LAYER   1

             INITIAL HEAD =   115.000     FOR LAYER   2

             INITIAL HEAD =   115.000     FOR LAYER   3

             INITIAL HEAD =   115.000     FOR LAYER   4

             INITIAL HEAD =   115.000     FOR LAYER   5

 OUTPUT CONTROL IS SPECIFIED EVERY TIME STEP
 HEAD PRINT FORMAT CODE IS -14    DRAWDOWN PRINT FORMAT CODE IS   9
 HEADS WILL BE SAVED ON UNIT   18    DRAWDOWNS WILL BE SAVED ON UNIT   19

 COLUMN TO ROW ANISOTROPY =   1.00000    

     PRIMARY STORAGE COEF =  0.200000     FOR LAYER   1

    HYD. COND. ALONG ROWS =   30.0000     FOR LAYER   1

 VERT HYD COND /THICKNESS =   3.00000     FOR LAYER   1



                   WETDRY PARAMETER FOR LAYER   1
 READING ON UNIT   10 WITH FORMAT: (10F13.0)           

         1     2     3     4     5     6     7     8     9    10    11    12    13    14    15    16    17
 .........................................................................................................
   1    0.0   0.0   0.0   0.0   0.0   0.0   0.0   0.0   0.0   0.0   0.0   0.0   0.0   0.0   0.0   0.0   0.0
   2    0.0  -0.2  -0.2  -0.2  -0.2  -0.2  -0.2  -0.2  -0.2  -0.2  -0.2  -0.2  -0.2  -0.2  -0.2  -0.2   0.0
   3    0.0  -0.2  -0.2  -0.2  -0.2  -0.2  -0.2  -0.2  -0.2  -0.2  -0.2  -0.2  -0.2  -0.2  -0.2  -0.2   0.0
   4    0.0  -0.2  -0.2  -0.2  -0.2  -0.2  -0.2  -0.2  -0.2  -0.2  -0.2  -0.2  -0.2  -0.2  -0.2  -0.2   0.0
   5    0.0  -0.2  -0.2  -0.2  -0.2  -0.2  -0.2  -0.2  -0.2  -0.2  -0.2  -0.2  -0.2  -0.2  -0.2  -0.2   0.0
   6    0.0  -0.2  -0.2  -0.2  -0.2  -0.2  -0.2  -0.2  -0.2  -0.2  -0.2  -0.2  -0.2  -0.2  -0.2  -0.2   0.0
   7    0.0  -0.2  -0.2  -0.2  -0.2  -0.2   0.0   0.0   0.0   0.0   0.0  -0.2  -0.2  -0.2  -0.2  -0.2   0.0
   8    0.0  -0.2  -0.2  -0.2  -0.2  -0.2   0.0   0.0   0.0   0.0   0.0  -0.2  -0.2  -0.2  -0.2  -0.2   0.0
   9    0.0  -0.2  -0.2  -0.2  -0.2  -0.2   0.0   0.0   0.0   0.0   0.0  -0.2  -0.2  -0.2  -0.2  -0.2   0.0
  10    0.0  -0.2  -0.2  -0.2  -0.2  -0.2   0.0   0.0   0.0   0.0   0.0  -0.2  -0.2  -0.2  -0.2  -0.2   0.0
  11    0.0  -0.2  -0.2  -0.2  -0.2  -0.2   0.0   0.0   0.0   0.0   0.0  -0.2  -0.2  -0.2  -0.2  -0.2   0.0
  12    0.0  -0.2  -0.2  -0.2  -0.2  -0.2  -0.2  -0.2  -0.2  -0.2  -0.2  -0.2  -0.2  -0.2  -0.2  -0.2   0.0
  13    0.0  -0.2  -0.2  -0.2  -0.2  -0.2  -0.2  -0.2  -0.2  -0.2  -0.2  -0.2  -0.2  -0.2  -0.2  -0.2   0.0
  14    0.0  -0.2  -0.2  -0.2  -0.2  -0.2  -0.2  -0.2  -0.2  -0.2  -0.2  -0.2  -0.2  -0.2  -0.2  -0.2   0.0
  15    0.0  -0.2  -0.2  -0.2  -0.2  -0.2  -0.2  -0.2  -0.2  -0.2  -0.2  -0.2  -0.2  -0.2  -0.2  -0.2   0.0
  16    0.0  -0.2  -0.2  -0.2  -0.2  -0.2  -0.2  -0.2  -0.2  -0.2  -0.2  -0.2  -0.2  -0.2  -0.2  -0.2   0.0
  17    0.0   0.0   0.0   0.0   0.0   0.0   0.0   0.0   0.0   0.0   0.0   0.0   0.0   0.0   0.0   0.0   0.0

     PRIMARY STORAGE COEF =  3.000000E-04 FOR LAYER   2

    HYD. COND. ALONG ROWS =   30.0000     FOR LAYER   2

 VERT HYD COND /THICKNESS =   3.00000     FOR LAYER   2

   SECONDARY STORAGE COEF =  0.200000     FOR LAYER   2



                   WETDRY PARAMETER FOR LAYER   2
 READING ON UNIT   10 WITH FORMAT: (10F13.0)           

         1     2     3     4     5     6     7     8     9    10    11    12    13    14    15    16    17
 .........................................................................................................
   1    0.0   0.0   0.0   0.0   0.0   0.0   0.0   0.0   0.0   0.0   0.0   0.0   0.0   0.0   0.0   0.0   0.0
   2    0.0  -0.2  -0.2  -0.2  -0.2  -0.2  -0.2  -0.2  -0.2  -0.2  -0.2  -0.2  -0.2  -0.2  -0.2  -0.2   0.0
   3    0.0  -0.2  -0.2  -0.2  -0.2  -0.2  -0.2  -0.2  -0.2  -0.2  -0.2  -0.2  -0.2  -0.2  -0.2  -0.2   0.0
   4    0.0  -0.2  -0.2  -0.2  -0.2  -0.2  -0.2  -0.2  -0.2  -0.2  -0.2  -0.2  -0.2  -0.2  -0.2  -0.2   0.0
   5    0.0  -0.2  -0.2  -0.2  -0.2  -0.2  -0.2  -0.2  -0.2  -0.2  -0.2  -0.2  -0.2  -0.2  -0.2  -0.2   0.0
   6    0.0  -0.2  -0.2  -0.2  -0.2  -0.2  -0.2  -0.2  -0.2  -0.2  -0.2  -0.2  -0.2  -0.2  -0.2  -0.2   0.0
   7    0.0  -0.2  -0.2  -0.2  -0.2  -0.2  -0.2  -0.2  -0.2  -0.2  -0.2  -0.2  -0.2  -0.2  -0.2  -0.2   0.0
   8    0.0  -0.2  -0.2  -0.2  -0.2  -0.2  -0.2   0.0   0.0   0.0  -0.2  -0.2  -0.2  -0.2  -0.2  -0.2   0.0
   9    0.0  -0.2  -0.2  -0.2  -0.2  -0.2  -0.2   0.0   0.0   0.0  -0.2  -0.2  -0.2  -0.2  -0.2  -0.2   0.0
  10    0.0  -0.2  -0.2  -0.2  -0.2  -0.2  -0.2   0.0   0.0   0.0  -0.2  -0.2  -0.2  -0.2  -0.2  -0.2   0.0
  11    0.0  -0.2  -0.2  -0.2  -0.2  -0.2  -0.2  -0.2  -0.2  -0.2  -0.2  -0.2  -0.2  -0.2  -0.2  -0.2   0.0
  12    0.0  -0.2  -0.2  -0.2  -0.2  -0.2  -0.2  -0.2  -0.2  -0.2  -0.2  -0.2  -0.2  -0.2  -0.2  -0.2   0.0
  13    0.0  -0.2  -0.2  -0.2  -0.2  -0.2  -0.2  -0.2  -0.2  -0.2  -0.2  -0.2  -0.2  -0.2  -0.2  -0.2   0.0
  14    0.0  -0.2  -0.2  -0.2  -0.2  -0.2  -0.2  -0.2  -0.2  -0.2  -0.2  -0.2  -0.2  -0.2  -0.2  -0.2   0.0
  15    0.0  -0.2  -0.2  -0.2  -0.2  -0.2  -0.2  -0.2  -0.2  -0.2  -0.2  -0.2  -0.2  -0.2  -0.2  -0.2   0.0
  16    0.0  -0.2  -0.2  -0.2  -0.2  -0.2  -0.2  -0.2  -0.2  -0.2  -0.2  -0.2  -0.2  -0.2  -0.2  -0.2   0.0
  17    0.0   0.0   0.0   0.0   0.0   0.0   0.0   0.0   0.0   0.0   0.0   0.0   0.0   0.0   0.0   0.0   0.0

     PRIMARY STORAGE COEF =  3.000000E-04 FOR LAYER   3

    HYD. COND. ALONG ROWS =   30.0000     FOR LAYER   3

 VERT HYD COND /THICKNESS =   3.00000     FOR LAYER   3

   SECONDARY STORAGE COEF =  0.200000     FOR LAYER   3



                   WETDRY PARAMETER FOR LAYER   3
 READING ON UNIT   10 WITH FORMAT: (10F13.0)           

         1     2     3     4     5     6     7     8     9    10    11    12    13    14    15    16    17
 .........................................................................................................
   1    0.0   0.0   0.0   0.0   0.0   0.0   0.0   0.0   0.0   0.0   0.0   0.0   0.0   0.0   0.0   0.0   0.0
   2    0.0  -0.2  -0.2  -0.2  -0.2  -0.2  -0.2  -0.2  -0.2  -0.2  -0.2  -0.2  -0.2  -0.2  -0.2  -0.2   0.0
   3    0.0  -0.2  -0.2  -0.2  -0.2  -0.2  -0.2  -0.2  -0.2  -0.2  -0.2  -0.2  -0.2  -0.2  -0.2  -0.2   0.0
   4    0.0  -0.2  -0.2  -0.2  -0.2  -0.2  -0.2  -0.2  -0.2  -0.2  -0.2  -0.2  -0.2  -0.2  -0.2  -0.2   0.0
   5    0.0  -0.2  -0.2  -0.2  -0.2  -0.2  -0.2  -0.2  -0.2  -0.2  -0.2  -0.2  -0.2  -0.2  -0.2  -0.2   0.0
   6    0.0  -0.2  -0.2  -0.2  -0.2  -0.2  -0.2  -0.2  -0.2  -0.2  -0.2  -0.2  -0.2  -0.2  -0.2  -0.2   0.0
   7    0.0  -0.2  -0.2  -0.2  -0.2  -0.2  -0.2  -0.2  -0.2  -0.2  -0.2  -0.2  -0.2  -0.2  -0.2  -0.2   0.0
   8    0.0  -0.2  -0.2  -0.2  -0.2  -0.2  -0.2  -0.2  -0.2  -0.2  -0.2  -0.2  -0.2  -0.2  -0.2  -0.2   0.0
   9    0.0  -0.2  -0.2  -0.2  -0.2  -0.2  -0.2  -0.2  -0.2  -0.2  -0.2  -0.2  -0.2  -0.2  -0.2  -0.2   0.0
  10    0.0  -0.2  -0.2  -0.2  -0.2  -0.2  -0.2  -0.2  -0.2  -0.2  -0.2  -0.2  -0.2  -0.2  -0.2  -0.2   0.0
  11    0.0  -0.2  -0.2  -0.2  -0.2  -0.2  -0.2  -0.2  -0.2  -0.2  -0.2  -0.2  -0.2  -0.2  -0.2  -0.2   0.0
  12    0.0  -0.2  -0.2  -0.2  -0.2  -0.2  -0.2  -0.2  -0.2  -0.2  -0.2  -0.2  -0.2  -0.2  -0.2  -0.2   0.0
  13    0.0  -0.2  -0.2  -0.2  -0.2  -0.2  -0.2  -0.2  -0.2  -0.2  -0.2  -0.2  -0.2  -0.2  -0.2  -0.2   0.0
  14    0.0  -0.2  -0.2  -0.2  -0.2  -0.2  -0.2  -0.2  -0.2  -0.2  -0.2  -0.2  -0.2  -0.2  -0.2  -0.2   0.0
  15    0.0  -0.2  -0.2  -0.2  -0.2  -0.2  -0.2  -0.2  -0.2  -0.2  -0.2  -0.2  -0.2  -0.2  -0.2  -0.2   0.0
  16    0.0  -0.2  -0.2  -0.2  -0.2  -0.2  -0.2  -0.2  -0.2  -0.2  -0.2  -0.2  -0.2  -0.2  -0.2  -0.2   0.0
  17    0.0   0.0   0.0   0.0   0.0   0.0   0.0   0.0   0.0   0.0   0.0   0.0   0.0   0.0   0.0   0.0   0.0

     PRIMARY STORAGE COEF =  3.000000E-04 FOR LAYER   4

    HYD. COND. ALONG ROWS =   30.0000     FOR LAYER   4

 VERT HYD COND /THICKNESS =   3.00000     FOR LAYER   4

   SECONDARY STORAGE COEF =  0.200000     FOR LAYER   4



                   WETDRY PARAMETER FOR LAYER   4
 READING ON UNIT   10 WITH FORMAT: (10F13.0)           

         1     2     3     4     5     6     7     8     9    10    11    12    13    14    15    16    17
 .........................................................................................................
   1    0.0   0.0   0.0   0.0   0.0   0.0   0.0   0.0   0.0   0.0   0.0   0.0   0.0   0.0   0.0   0.0   0.0
   2    0.0  -0.2  -0.2  -0.2  -0.2  -0.2  -0.2  -0.2  -0.2  -0.2  -0.2  -0.2  -0.2  -0.2  -0.2  -0.2   0.0
   3    0.0  -0.2  -0.2  -0.2  -0.2  -0.2  -0.2  -0.2  -0.2  -0.2  -0.2  -0.2  -0.2  -0.2  -0.2  -0.2   0.0
   4    0.0  -0.2  -0.2  -0.2  -0.2  -0.2  -0.2  -0.2  -0.2  -0.2  -0.2  -0.2  -0.2  -0.2  -0.2  -0.2   0.0
   5    0.0  -0.2  -0.2  -0.2  -0.2  -0.2  -0.2  -0.2  -0.2  -0.2  -0.2  -0.2  -0.2  -0.2  -0.2  -0.2   0.0
   6    0.0  -0.2  -0.2  -0.2  -0.2  -0.2  -0.2  -0.2  -0.2  -0.2  -0.2  -0.2  -0.2  -0.2  -0.2  -0.2   0.0
   7    0.0  -0.2  -0.2  -0.2  -0.2  -0.2  -0.2  -0.2  -0.2  -0.2  -0.2  -0.2  -0.2  -0.2  -0.2  -0.2   0.0
   8    0.0  -0.2  -0.2  -0.2  -0.2  -0.2  -0.2  -0.2  -0.2  -0.2  -0.2  -0.2  -0.2  -0.2  -0.2  -0.2   0.0
   9    0.0  -0.2  -0.2  -0.2  -0.2  -0.2  -0.2  -0.2  -0.2  -0.2  -0.2  -0.2  -0.2  -0.2  -0.2  -0.2   0.0
  10    0.0  -0.2  -0.2  -0.2  -0.2  -0.2  -0.2  -0.2  -0.2  -0.2  -0.2  -0.2  -0.2  -0.2  -0.2  -0.2   0.0
  11    0.0  -0.2  -0.2  -0.2  -0.2  -0.2  -0.2  -0.2  -0.2  -0.2  -0.2  -0.2  -0.2  -0.2  -0.2  -0.2   0.0
  12    0.0  -0.2  -0.2  -0.2  -0.2  -0.2  -0.2  -0.2  -0.2  -0.2  -0.2  -0.2  -0.2  -0.2  -0.2  -0.2   0.0
  13    0.0  -0.2  -0.2  -0.2  -0.2  -0.2  -0.2  -0.2  -0.2  -0.2  -0.2  -0.2  -0.2  -0.2  -0.2  -0.2   0.0
  14    0.0  -0.2  -0.2  -0.2  -0.2  -0.2  -0.2  -0.2  -0.2  -0.2  -0.2  -0.2  -0.2  -0.2  -0.2  -0.2   0.0
  15    0.0  -0.2  -0.2  -0.2  -0.2  -0.2  -0.2  -0.2  -0.2  -0.2  -0.2  -0.2  -0.2  -0.2  -0.2  -0.2   0.0
  16    0.0  -0.2  -0.2  -0.2  -0.2  -0.2  -0.2  -0.2  -0.2  -0.2  -0.2  -0.2  -0.2  -0.2  -0.2  -0.2   0.0
  17    0.0   0.0   0.0   0.0   0.0   0.0   0.0   0.0   0.0   0.0   0.0   0.0   0.0   0.0   0.0   0.0   0.0

     PRIMARY STORAGE COEF =  3.000000E-04 FOR LAYER   5

    HYD. COND. ALONG ROWS =   30.0000     FOR LAYER   5

   SECONDARY STORAGE COEF =  0.200000     FOR LAYER   5



                   WETDRY PARAMETER FOR LAYER   5
 READING ON UNIT   10 WITH FORMAT: (10F13.0)           

         1     2     3     4     5     6     7     8     9    10    11    12    13    14    15    16    17
 .........................................................................................................
   1    0.0   0.0   0.0   0.0   0.0   0.0   0.0   0.0   0.0   0.0   0.0   0.0   0.0   0.0   0.0   0.0   0.0
   2    0.0  -0.2  -0.2  -0.2  -0.2  -0.2  -0.2  -0.2  -0.2  -0.2  -0.2  -0.2  -0.2  -0.2  -0.2  -0.2   0.0
   3    0.0  -0.2  -0.2  -0.2  -0.2  -0.2  -0.2  -0.2  -0.2  -0.2  -0.2  -0.2  -0.2  -0.2  -0.2  -0.2   0.0
   4    0.0  -0.2  -0.2  -0.2  -0.2  -0.2  -0.2  -0.2  -0.2  -0.2  -0.2  -0.2  -0.2  -0.2  -0.2  -0.2   0.0
   5    0.0  -0.2  -0.2  -0.2  -0.2  -0.2  -0.2  -0.2  -0.2  -0.2  -0.2  -0.2  -0.2  -0.2  -0.2  -0.2   0.0
   6    0.0  -0.2  -0.2  -0.2  -0.2  -0.2  -0.2  -0.2  -0.2  -0.2  -0.2  -0.2  -0.2  -0.2  -0.2  -0.2   0.0
   7    0.0  -0.2  -0.2  -0.2  -0.2  -0.2  -0.2  -0.2  -0.2  -0.2  -0.2  -0.2  -0.2  -0.2  -0.2  -0.2   0.0
   8    0.0  -0.2  -0.2  -0.2  -0.2  -0.2  -0.2  -0.2  -0.2  -0.2  -0.2  -0.2  -0.2  -0.2  -0.2  -0.2   0.0
   9    0.0  -0.2  -0.2  -0.2  -0.2  -0.2  -0.2  -0.2  -0.2  -0.2  -0.2  -0.2  -0.2  -0.2  -0.2  -0.2   0.0
  10    0.0  -0.2  -0.2  -0.2  -0.2  -0.2  -0.2  -0.2  -0.2  -0.2  -0.2  -0.2  -0.2  -0.2  -0.2  -0.2   0.0
  11    0.0  -0.2  -0.2  -0.2  -0.2  -0.2  -0.2  -0.2  -0.2  -0.2  -0.2  -0.2  -0.2  -0.2  -0.2  -0.2   0.0
  12    0.0  -0.2  -0.2  -0.2  -0.2  -0.2  -0.2  -0.2  -0.2  -0.2  -0.2  -0.2  -0.2  -0.2  -0.2  -0.2   0.0
  13    0.0  -0.2  -0.2  -0.2  -0.2  -0.2  -0.2  -0.2  -0.2  -0.2  -0.2  -0.2  -0.2  -0.2  -0.2  -0.2   0.0
  14    0.0  -0.2  -0.2  -0.2  -0.2  -0.2  -0.2  -0.2  -0.2  -0.2  -0.2  -0.2  -0.2  -0.2  -0.2  -0.2   0.0
  15    0.0  -0.2  -0.2  -0.2  -0.2  -0.2  -0.2  -0.2  -0.2  -0.2  -0.2  -0.2  -0.2  -0.2  -0.2  -0.2   0.0
  16    0.0  -0.2  -0.2  -0.2  -0.2  -0.2  -0.2  -0.2  -0.2  -0.2  -0.2  -0.2  -0.2  -0.2  -0.2  -0.2   0.0
  17    0.0   0.0   0.0   0.0   0.0   0.0   0.0   0.0   0.0   0.0   0.0   0.0   0.0   0.0   0.0   0.0   0.0


     0 Evapotranspiration parameters


     0 Recharge parameters
 TIMES FOR SPECIFIED-FLOW AND HEAD VALUES WILL BE READ ON UNIT  21 AND
 MULTIPLIED BY   1.000    .
     1 TIMES FOR SPECIFYING FLOWS AND HEADS:
                       1
                 ------------
                    0.000    

 CELL INDICIES AND SPECIFIED-HEAD VALUES WILL BE READ ON UNIT  21. HEAD VALUES
 WILL BE MULTIPLIED BY   1.000    .
 LAYER  ROW  COL IAUX             HEAD VALUES
 -------------------------------
    1    1    1   64   160.0    
    1    2    1   64   160.0    
    1    3    1   64   160.0    
    1    4    1   64   160.0    
    1    5    1   64   160.0    
    1    6    1   64   160.0    
    1    7    1   64   160.0    
    1    8    1   64   160.0    
    1    9    1   64   160.0    
    1   10    1   64   160.0    
    1   11    1   64   160.0    
    1   12    1   64   160.0    
    1   13    1   64   160.0    
    1   14    1   64   160.0    
    1   15    1   64   160.0    
    1   16    1   64   160.0    
    1   17    1   64   160.0    
    1    1   17   64   140.0    
    1    2   17   64   140.0    
    1    3   17   64   140.0    
    1    4   17   64   140.0    
    1    5   17   64   140.0    
    1    6   17   64   140.0    
    1    7   17   64   140.0    
    1    8   17   64   140.0    
    1    9   17   64   140.0    
    1   10   17   64   140.0    
    1   11   17   64   140.0    
    1   12   17   64   140.0    
    1   13   17   64   140.0    
    1   14   17   64   140.0    
    1   15   17   64   140.0    
    1   16   17   64   140.0    
    1   17   17   64   140.0    
    2    1    1   64   160.0    
    2    2    1   64   160.0    
    2    3    1   64   160.0    
    2    4    1   64   160.0    
    2    5    1   64   160.0    
    2    6    1   64   160.0    
    2    7    1   64   160.0    
    2    8    1   64   160.0    
    2    9    1   64   160.0    
    2   10    1   64   160.0    
    2   11    1   64   160.0    
    2   12    1   64   160.0    
    2   13    1   64   160.0    
    2   14    1   64   160.0    
    2   15    1   64   160.0    
    2   16    1   64   160.0    
    2   17    1   64   160.0    
    2    1   17   64   140.0    
    2    2   17   64   140.0    
    2    3   17   64   140.0    
    2    4   17   64   140.0    
    2    5   17   64   140.0    
    2    6   17   64   140.0    
    2    7   17   64   140.0    
    2    8   17   64   140.0    
    2    9   17   64   140.0    
    2   10   17   64   140.0    
    2   11   17   64   140.0    
    2   12   17   64   140.0    
    2   13   17   64   140.0    
    2   14   17   64   140.0    
    2   15   17   64   140.0    
    2   16   17   64   140.0    
    2   17   17   64   140.0    
    3    1    1   64   160.0    
    3    2    1   64   160.0    
    3    3    1   64   160.0    
    3    4    1   64   160.0    
    3    5    1   64   160.0    
    3    6    1   64   160.0    
    3    7    1   64   160.0    
    3    8    1   64   160.0    
    3    9    1   64   160.0    
    3   10    1   64   160.0    
    3   11    1   64   160.0    
    3   12    1   64   160.0    
    3   13    1   64   160.0    
    3   14    1   64   160.0    
    3   15    1   64   160.0    
    3   16    1   64   160.0    
    3   17    1   64   160.0    
    3    1   17   64   140.0    
    3    2   17   64   140.0    
    3    3   17   64   140.0    
    3    4   17   64   140.0    
    3    5   17   64   140.0    
    3    6   17   64   140.0    
    3    7   17   64   140.0    
    3    8   17   64   140.0    
    3    9   17   64   140.0    
    3   10   17   64   140.0    
    3   11   17   64   140.0    
    3   12   17   64   140.0    
    3   13   17   64   140.0    
    3   14   17   64   140.0    
    3   15   17   64   140.0    
    3   16   17   64   140.0    
    3   17   17   64   140.0    
    4    1    1   64   160.0    
    4    2    1   64   160.0    
    4    3    1   64   160.0    
    4    4    1   64   160.0    
    4    5    1   64   160.0    
    4    6    1   64   160.0    
    4    7    1   64   160.0    
    4    8    1   64   160.0    
    4    9    1   64   160.0    
    4   10    1   64   160.0    
    4   11    1   64   160.0    
    4   12    1   64   160.0    
    4   13    1   64   160.0    
    4   14    1   64   160.0    
    4   15    1   64   160.0    
    4   16    1   64   160.0    
    4   17    1   64   160.0    
    4    1   17   64   140.0    
    4    2   17   64   140.0    
    4    3   17   64   140.0    
    4    4   17   64   140.0    
    4    5   17   64   140.0    
    4    6   17   64   140.0    
    4    7   17   64   140.0    
    4    8   17   64   140.0    
    4    9   17   64   140.0    
    4   10   17   64   140.0    
    4   11   17   64   140.0    
    4   12   17   64   140.0    
    4   13   17   64   140.0    
    4   14   17   64   140.0    
    4   15   17   64   140.0    
    4   16   17   64   140.0    
    4   17   17   64   140.0    
    5    1    1   64   160.0    
    5    2    1   64   160.0    
    5    3    1   64   160.0    
    5    4    1   64   160.0    
    5    5    1   64   160.0    
    5    6    1   64   160.0    
    5    7    1   64   160.0    
    5    8    1   64   160.0    
    5    9    1   64   160.0    
    5   10    1   64   160.0    
    5   11    1   64   160.0    
    5   12    1   64   160.0    
    5   13    1   64   160.0    
    5   14    1   64   160.0    
    5   15    1   64   160.0    
    5   16    1   64   160.0    
    5   17    1   64   160.0    
    5    1   17   64   140.0    
    5    2   17   64   140.0    
    5    3   17   64   140.0    
    5    4   17   64   140.0    
    5    5   17   64   140.0    
    5    6   17   64   140.0    
    5    7   17   64   140.0    
    5    8   17   64   140.0    
    5    9   17   64   140.0    
    5   10   17   64   140.0    
    5   11   17   64   140.0    
    5   12   17   64   140.0    
    5   13   17   64   140.0    
    5   14   17   64   140.0    
    5   15   17   64   140.0    
    5   16   17   64   140.0    
    5   17   17   64   140.0    
    1    1    2   64   158.9    
    1    1    3   64   157.3    
    1    1    4   64   155.8    
    1    1    5   64   154.2    
    1    1    6   64   152.7    
    1    1    7   64   151.5    
    1    1    8   64   150.8    
    1    1    9   64   150.0    
    1    1   10   64   149.2    
    1    1   11   64   148.5    
    1    1   12   64   147.3    
    1    1   13   64   145.8    
    1    1   14   64   144.2    
    1    1   15   64   142.7    
    1    1   16   64   141.1    
    1   17    2   64   158.9    
    1   17    3   64   157.3    
    1   17    4   64   155.8    
    1   17    5   64   154.2    
    1   17    6   64   152.7    
    1   17    7   64   151.5    
    1   17    8   64   150.8    
    1   17    9   64   150.0    
    1   17   10   64   149.2    
    1   17   11   64   148.5    
    1   17   12   64   147.3    
    1   17   13   64   145.8    
    1   17   14   64   144.2    
    1   17   15   64   142.7    
    1   17   16   64   141.1    
    2    1    2   64   158.9    
    2    1    3   64   157.3    
    2    1    4   64   155.8    
    2    1    5   64   154.2    
    2    1    6   64   152.7    
    2    1    7   64   151.5    
    2    1    8   64   150.8    
    2    1    9   64   150.0    
    2    1   10   64   149.2    
    2    1   11   64   148.5    
    2    1   12   64   147.3    
    2    1   13   64   145.8    
    2    1   14   64   144.2    
    2    1   15   64   142.7    
    2    1   16   64   141.1    
    2   17    2   64   158.9    
    2   17    3   64   157.3    
    2   17    4   64   155.8    
    2   17    5   64   154.2    
    2   17    6   64   152.7    
    2   17    7   64   151.5    
    2   17    8   64   150.8    
    2   17    9   64   150.0    
    2   17   10   64   149.2    
    2   17   11   64   148.5    
    2   17   12   64   147.3    
    2   17   13   64   145.8    
    2   17   14   64   144.2    
    2   17   15   64   142.7    
    2   17   16   64   141.1    
    3    1    2   64   158.9    
    3    1    3   64   157.3    
    3    1    4   64   155.8    
    3    1    5   64   154.2    
    3    1    6   64   152.7    
    3    1    7   64   151.5    
    3    1    8   64   150.8    
    3    1    9   64   150.0    
    3    1   10   64   149.2    
    3    1   11   64   148.5    
    3    1   12   64   147.3    
    3    1   13   64   145.8    
    3    1   14   64   144.2    
    3    1   15   64   142.7    
    3    1   16   64   141.1    
    3   17    2   64   158.9    
    3   17    3   64   157.3    
    3   17    4   64   155.8    
    3   17    5   64   154.2    
    3   17    6   64   152.7    
    3   17    7   64   151.5    
    3   17    8   64   150.8    
    3   17    9   64   150.0    
    3   17   10   64   149.2    
    3   17   11   64   148.5    
    3   17   12   64   147.3    
    3   17   13   64   145.8    
    3   17   14   64   144.2    
    3   17   15   64   142.7    
    3   17   16   64   141.1    
    4    1    2   64   158.9    
    4    1    3   64   157.3    
    4    1    4   64   155.8    
    4    1    5   64   154.2    
    4    1    6   64   152.7    
    4    1    7   64   151.5    
    4    1    8   64   150.8    
    4    1    9   64   150.0    
    4    1   10   64   149.2    
    4    1   11   64   148.5    
    4    1   12   64   147.3    
    4    1   13   64   145.8    
    4    1   14   64   144.2    
    4    1   15   64   142.7    
    4    1   16   64   141.1    
    4   17    2   64   158.9    
    4   17    3   64   157.3    
    4   17    4   64   155.8    
    4   17    5   64   154.2    
    4   17    6   64   152.7    
    4   17    7   64   151.5    
    4   17    8   64   150.8    
    4   17    9   64   150.0    
    4   17   10   64   149.2    
    4   17   11   64   148.5    
    4   17   12   64   147.3    
    4   17   13   64   145.8    
    4   17   14   64   144.2    
    4   17   15   64   142.7    
    4   17   16   64   141.1    
    5    1    2   64   158.9    
    5    1    3   64   157.3    
    5    1    4   64   155.8    
    5    1    5   64   154.2    
    5    1    6   64   152.7    
    5    1    7   64   151.5    
    5    1    8   64   150.8    
    5    1    9   64   150.0    
    5    1   10   64   149.2    
    5    1   11   64   148.5    
    5    1   12   64   147.3    
    5    1   13   64   145.8    
    5    1   14   64   144.2    
    5    1   15   64   142.7    
    5    1   16   64   141.1    
    5   17    2   64   158.9    
    5   17    3   64   157.3    
    5   17    4   64   155.8    
    5   17    5   64   154.2    
    5   17    6   64   152.7    
    5   17    7   64   151.5    
    5   17    8   64   150.8    
    5   17    9   64   150.0    
    5   17   10   64   149.2    
    5   17   11   64   148.5    
    5   17   12   64   147.3    
    5   17   13   64   145.8    
    5   17   14   64   144.2    
    5   17   15   64   142.7    
    5   17   16   64   141.1    



   1 GAGING STATION WAS SPECIFIED.
     (Lakes are identified by a negative value of the Lake Number)
     RECORDS WILL BE WRITTEN TO SEPARATE OUTPUT FILE REPRESENTED BY FOLLOWING UNIT NUMBER:
 Lake Gages:
  GAGE #    LAKE     UNIT   OUTTYPE
       1      -1      37




1
                            STRESS PERIOD NO.    1, LENGTH =   5000.000    
                            -----------------------------------------------

                              NUMBER OF TIME STEPS =   100

                               MULTIPLIER FOR DELT =     1.020

                            INITIAL TIME STEP SIZE =   16.01374    



                         ET SURFACE
 READING ON UNIT   11 WITH FORMAT: (19F6.1)            

         1     2     3     4     5     6     7     8     9    10    11    12    13    14    15    16    17
 .........................................................................................................
   1  160.0 159.0 157.4 155.9 154.3 152.7 151.6 150.8 150.0 149.2 148.4 147.3 145.7 144.1 142.6 141.0 140.0
   2  160.0 159.0 157.4 155.9 154.3 152.7 151.6 150.8 150.0 149.2 148.4 147.3 145.7 144.1 142.6 141.0 140.0
   3  160.0 159.0 157.4 155.9 154.3 152.7 151.6 150.8 150.0 149.2 148.4 147.3 145.7 144.1 142.6 141.0 140.0
   4  160.0 159.0 157.4 155.9 154.3 152.7 151.6 150.8 150.0 149.2 148.4 147.3 145.7 144.1 142.6 141.0 140.0
   5  160.0 159.0 157.4 155.9 154.3 152.7 151.6 150.8 150.0 149.2 148.4 147.3 145.7 144.1 142.6 141.0 140.0
   6  160.0 159.0 157.4 155.9 154.3 152.7 151.6 150.8 150.0 149.2 148.4 147.3 145.7 144.1 142.6 141.0 140.0
   7  160.0 159.0 157.4 155.9 154.3 152.7 105.0 105.0 105.0 105.0 105.0 147.3 145.7 144.1 142.6 141.0 140.0
   8  160.0 159.0 157.4 155.9 154.3 152.7 105.0  95.0  95.0  95.0 105.0 147.3 145.7 144.1 142.6 141.0 140.0
   9  160.0 159.0 157.4 155.9 154.3 152.7 105.0  95.0  95.0  95.0 105.0 147.3 145.7 144.1 142.6 141.0 140.0
  10  160.0 159.0 157.4 155.9 154.3 152.7 105.0  95.0  95.0  95.0 105.0 147.3 145.7 144.1 142.6 141.0 140.0
  11  160.0 159.0 157.4 155.9 154.3 152.7 105.0 105.0 105.0 105.0 105.0 147.3 145.7 144.1 142.6 141.0 140.0
  12  160.0 159.0 157.4 155.9 154.3 152.7 151.6 150.8 150.0 149.2 148.4 147.3 145.7 144.1 142.6 141.0 140.0
  13  160.0 159.0 157.4 155.9 154.3 152.7 151.6 150.8 150.0 149.2 148.4 147.3 145.7 144.1 142.6 141.0 140.0
  14  160.0 159.0 157.4 155.9 154.3 152.7 151.6 150.8 150.0 149.2 148.4 147.3 145.7 144.1 142.6 141.0 140.0
  15  160.0 159.0 157.4 155.9 154.3 152.7 151.6 150.8 150.0 149.2 148.4 147.3 145.7 144.1 142.6 141.0 140.0
  16  160.0 159.0 157.4 155.9 154.3 152.7 151.6 150.8 150.0 149.2 148.4 147.3 145.7 144.1 142.6 141.0 140.0
  17  160.0 159.0 157.4 155.9 154.3 152.7 151.6 150.8 150.0 149.2 148.4 147.3 145.7 144.1 142.6 141.0 140.0

  EVAPOTRANSPIRATION RATE =  1.410000E-02

         EXTINCTION DEPTH =   15.0000    

                 RECHARGE =  1.160000E-02


 LAKE PACKAGE ACTIVE:  CALCULATED LAKE STAGE FOR EACHTIME STEP WILL BE STORED IN HNEW ARRAY.

 INITIAL LAKE STAGE:  LAKE    STAGE

                        1   110.000




 If any subsequent steady-state stress periods, min. and max. stages for each lake will be read in Record 9a.





                      LAKE ID ARRAY FOR LAYER   1
 READING ON UNIT   16 WITH FORMAT: (24I3)              

        1   2   3   4   5   6   7   8   9  10  11  12  13  14  15  16  17
 ........................................................................
   1    0   0   0   0   0   0   0   0   0   0   0   0   0   0   0   0   0
   2    0   0   0   0   0   0   0   0   0   0   0   0   0   0   0   0   0
   3    0   0   0   0   0   0   0   0   0   0   0   0   0   0   0   0   0
   4    0   0   0   0   0   0   0   0   0   0   0   0   0   0   0   0   0
   5    0   0   0   0   0   0   0   0   0   0   0   0   0   0   0   0   0
   6    0   0   0   0   0   0   0   0   0   0   0   0   0   0   0   0   0
   7    0   0   0   0   0   0   1   1   1   1   1   0   0   0   0   0   0
   8    0   0   0   0   0   0   1   1   1   1   1   0   0   0   0   0   0
   9    0   0   0   0   0   0   1   1   1   1   1   0   0   0   0   0   0
  10    0   0   0   0   0   0   1   1   1   1   1   0   0   0   0   0   0
  11    0   0   0   0   0   0   1   1   1   1   1   0   0   0   0   0   0
  12    0   0   0   0   0   0   0   0   0   0   0   0   0   0   0   0   0
  13    0   0   0   0   0   0   0   0   0   0   0   0   0   0   0   0   0
  14    0   0   0   0   0   0   0   0   0   0   0   0   0   0   0   0   0
  15    0   0   0   0   0   0   0   0   0   0   0   0   0   0   0   0   0
  16    0   0   0   0   0   0   0   0   0   0   0   0   0   0   0   0   0
  17    0   0   0   0   0   0   0   0   0   0   0   0   0   0   0   0   0



                      LAKE ID ARRAY FOR LAYER   2
 READING ON UNIT   16 WITH FORMAT: (24I3)              

        1   2   3   4   5   6   7   8   9  10  11  12  13  14  15  16  17
 ........................................................................
   1    0   0   0   0   0   0   0   0   0   0   0   0   0   0   0   0   0
   2    0   0   0   0   0   0   0   0   0   0   0   0   0   0   0   0   0
   3    0   0   0   0   0   0   0   0   0   0   0   0   0   0   0   0   0
   4    0   0   0   0   0   0   0   0   0   0   0   0   0   0   0   0   0
   5    0   0   0   0   0   0   0   0   0   0   0   0   0   0   0   0   0
   6    0   0   0   0   0   0   0   0   0   0   0   0   0   0   0   0   0
   7    0   0   0   0   0   0   0   0   0   0   0   0   0   0   0   0   0
   8    0   0   0   0   0   0   0   1   1   1   0   0   0   0   0   0   0
   9    0   0   0   0   0   0   0   1   1   1   0   0   0   0   0   0   0
  10    0   0   0   0   0   0   0   1   1   1   0   0   0   0   0   0   0
  11    0   0   0   0   0   0   0   0   0   0   0   0   0   0   0   0   0
  12    0   0   0   0   0   0   0   0   0   0   0   0   0   0   0   0   0
  13    0   0   0   0   0   0   0   0   0   0   0   0   0   0   0   0   0
  14    0   0   0   0   0   0   0   0   0   0   0   0   0   0   0   0   0
  15    0   0   0   0   0   0   0   0   0   0   0   0   0   0   0   0   0
  16    0   0   0   0   0   0   0   0   0   0   0   0   0   0   0   0   0
  17    0   0   0   0   0   0   0   0   0   0   0   0   0   0   0   0   0

            LAKE ID ARRAY =              0 FOR LAYER   3

            LAKE ID ARRAY =              0 FOR LAYER   4

            LAKE ID ARRAY =              0 FOR LAYER   5





   LAKEBED LEAKANCE ARRAY =  0.100000     FOR LAYER   1

   LAKEBED LEAKANCE ARRAY =  0.100000     FOR LAYER   2

   LAKEBED LEAKANCE ARRAY =  0.100000     FOR LAYER   3

   LAKEBED LEAKANCE ARRAY =  0.100000     FOR LAYER   4

   LAKEBED LEAKANCE ARRAY =  0.100000     FOR LAYER   5

       LOCATIONS, LAKE #, INTERFACE TYPE FOR GRID CELLS ADJACENT TO LAKES:
     -----------------------------------------------------------------------
     LAYER #    ROW #    COLUMN #   LAKE #  INTERFACE TYPE  LAKEBED LEAKANCE
         1         7         6         1         2             0.10000
         1         8         6         1         2             0.10000
         1         9         6         1         2             0.10000
         1        10         6         1         2             0.10000
         1        11         6         1         2             0.10000
         1         6         7         1         3             0.10000
         2         7         7         1         6             0.10000
         2         8         7         1         6             0.10000
         2         8         7         1         2             0.10000
         2         9         7         1         6             0.10000
         2         9         7         1         2             0.10000
         2        10         7         1         6             0.10000
         2        10         7         1         2             0.10000
         2        11         7         1         6             0.10000
         1        12         7         1         4             0.10000
         1         6         8         1         3             0.10000
         2         7         8         1         6             0.10000
         2         7         8         1         3             0.10000
         3         8         8         1         6             0.10000
         3         9         8         1         6             0.10000
         3        10         8         1         6             0.10000
         2        11         8         1         6             0.10000
         2        11         8         1         4             0.10000
         1        12         8         1         4             0.10000
         1         6         9         1         3             0.10000
         2         7         9         1         6             0.10000
         2         7         9         1         3             0.10000
         3         8         9         1         6             0.10000
         3         9         9         1         6             0.10000
         3        10         9         1         6             0.10000
         2        11         9         1         6             0.10000
         2        11         9         1         4             0.10000
         1        12         9         1         4             0.10000
         1         6        10         1         3             0.10000
         2         7        10         1         6             0.10000
         2         7        10         1         3             0.10000
         3         8        10         1         6             0.10000
         3         9        10         1         6             0.10000
         3        10        10         1         6             0.10000
         2        11        10         1         6             0.10000
         2        11        10         1         4             0.10000
         1        12        10         1         4             0.10000
         1         6        11         1         3             0.10000
         2         7        11         1         6             0.10000
         2         8        11         1         6             0.10000
         2         8        11         1         1             0.10000
         2         9        11         1         6             0.10000
         2         9        11         1         1             0.10000
         2        10        11         1         6             0.10000
         2        10        11         1         1             0.10000
         2        11        11         1         6             0.10000
         1        12        11         1         4             0.10000
         1         7        12         1         1             0.10000
         1         8        12         1         1             0.10000
         1         9        12         1         1             0.10000
         1        10        12         1         1             0.10000
         1        11        12         1         1             0.10000

     NUMBER OF LAKE-AQUIFER CELL INTERFACES =    57


 STAGE/VOLUME RELATION FOR LAKE  1

       STAGE       VOLUME         AREA

   9.7000E+01   0.0000E+00   0.0000E+00
   9.7200E+01   4.4999E+05   2.2500E+06
   9.7400E+01   8.9999E+05   2.2500E+06
   9.7600E+01   1.3500E+06   2.2500E+06
   9.7800E+01   1.8000E+06   2.2500E+06
   9.8000E+01   2.2500E+06   2.2500E+06
   9.8200E+01   2.7000E+06   2.2500E+06
   9.8400E+01   3.1500E+06   2.2500E+06
   9.8600E+01   3.5999E+06   2.2500E+06
   9.8800E+01   4.0499E+06   2.2500E+06
   9.9000E+01   4.4999E+06   2.2500E+06
   9.9200E+01   4.9499E+06   2.2500E+06
   9.9400E+01   5.3999E+06   2.2500E+06
   9.9600E+01   5.8499E+06   2.2500E+06
   9.9800E+01   6.2999E+06   2.2500E+06
   1.0000E+02   6.7499E+06   2.2500E+06
   1.0020E+02   7.1999E+06   2.2500E+06
   1.0040E+02   7.6499E+06   2.2500E+06
   1.0060E+02   8.0999E+06   2.2500E+06
   1.0080E+02   8.5499E+06   2.2500E+06
   1.0100E+02   8.9999E+06   2.2500E+06
   1.0120E+02   9.4499E+06   2.2500E+06
   1.0140E+02   9.8998E+06   2.2500E+06
   1.0160E+02   1.0350E+07   2.2500E+06
   1.0180E+02   1.0800E+07   2.2500E+06
   1.0200E+02   1.1250E+07   2.2500E+06
   1.0220E+02   1.1700E+07   2.2500E+06
   1.0240E+02   1.2150E+07   2.2500E+06
   1.0260E+02   1.2600E+07   2.2500E+06
   1.0280E+02   1.3050E+07   2.2500E+06
   1.0300E+02   1.3500E+07   2.2500E+06
   1.0320E+02   1.3950E+07   2.2500E+06
   1.0340E+02   1.4400E+07   2.2500E+06
   1.0360E+02   1.4850E+07   2.2500E+06
   1.0380E+02   1.5300E+07   2.2500E+06
   1.0400E+02   1.5750E+07   2.2500E+06
   1.0420E+02   1.6200E+07   2.2500E+06
   1.0440E+02   1.6650E+07   2.2500E+06
   1.0460E+02   1.7100E+07   2.2500E+06
   1.0480E+02   1.7550E+07   2.2500E+06
   1.0500E+02   1.8000E+07   2.2500E+06
   1.0520E+02   1.8450E+07   2.2500E+06
   1.0540E+02   1.8900E+07   2.2500E+06
   1.0560E+02   1.9350E+07   2.2500E+06
   1.0580E+02   1.9800E+07   2.2500E+06
   1.0600E+02   2.0250E+07   2.2500E+06
   1.0620E+02   2.0700E+07   2.2500E+06
   1.0640E+02   2.1150E+07   2.2500E+06
   1.0660E+02   2.1600E+07   2.2500E+06
   1.0680E+02   2.2050E+07   2.2500E+06
   1.0700E+02   2.2500E+07   2.2500E+06
   1.0720E+02   2.3749E+07   6.2500E+06
   1.0740E+02   2.4999E+07   6.2500E+06
   1.0760E+02   2.6249E+07   6.2500E+06
   1.0780E+02   2.7499E+07   6.2500E+06
   1.0800E+02   2.8749E+07   6.2500E+06
   1.0820E+02   2.9999E+07   6.2500E+06
   1.0840E+02   3.1249E+07   6.2500E+06
   1.0860E+02   3.2499E+07   6.2500E+06
   1.0880E+02   3.3749E+07   6.2500E+06
   1.0900E+02   3.4999E+07   6.2500E+06
   1.0920E+02   3.6249E+07   6.2500E+06
   1.0940E+02   3.7499E+07   6.2500E+06
   1.0960E+02   3.8749E+07   6.2500E+06
   1.0980E+02   3.9999E+07   6.2500E+06
   1.1000E+02   4.1249E+07   6.2500E+06
   1.1020E+02   4.2499E+07   6.2500E+06
   1.1040E+02   4.3749E+07   6.2500E+06
   1.1060E+02   4.4999E+07   6.2500E+06
   1.1080E+02   4.6249E+07   6.2500E+06
   1.1100E+02   4.7499E+07   6.2500E+06
   1.1120E+02   4.8749E+07   6.2500E+06
   1.1140E+02   4.9999E+07   6.2500E+06
   1.1160E+02   5.1249E+07   6.2500E+06
   1.1180E+02   5.2499E+07   6.2500E+06
   1.1200E+02   5.3749E+07   6.2500E+06
   1.1220E+02   5.4999E+07   6.2500E+06
   1.1240E+02   5.6249E+07   6.2500E+06
   1.1260E+02   5.7499E+07   6.2500E+06
   1.1280E+02   5.8748E+07   6.2500E+06
   1.1300E+02   5.9998E+07   6.2500E+06
   1.1320E+02   6.1248E+07   6.2500E+06
   1.1340E+02   6.2498E+07   6.2500E+06
   1.1360E+02   6.3748E+07   6.2500E+06
   1.1380E+02   6.4998E+07   6.2500E+06
   1.1400E+02   6.6248E+07   6.2500E+06
   1.1420E+02   6.7498E+07   6.2500E+06
   1.1440E+02   6.8748E+07   6.2500E+06
   1.1460E+02   6.9998E+07   6.2500E+06
   1.1480E+02   7.1248E+07   6.2500E+06
   1.1500E+02   7.2498E+07   6.2500E+06
   1.1520E+02   7.3748E+07   6.2500E+06
   1.1540E+02   7.4998E+07   6.2500E+06
   1.1560E+02   7.6248E+07   6.2500E+06
   1.1580E+02   7.7498E+07   6.2500E+06
   1.1600E+02   7.8748E+07   6.2500E+06
   1.1620E+02   7.9998E+07   6.2500E+06
   1.1640E+02   8.1248E+07   6.2500E+06
   1.1660E+02   8.2498E+07   6.2500E+06
   1.1680E+02   8.3748E+07   6.2500E+06
   1.1700E+02   8.4998E+07   6.2500E+06
   1.1720E+02   8.6248E+07   6.2500E+06
   1.1740E+02   8.7498E+07   6.2500E+06
   1.1760E+02   8.8748E+07   6.2500E+06
   1.1780E+02   8.9998E+07   6.2500E+06
   1.1800E+02   9.1248E+07   6.2500E+06
   1.1820E+02   9.2498E+07   6.2500E+06
   1.1840E+02   9.3748E+07   6.2500E+06
   1.1860E+02   9.4998E+07   6.2500E+06
   1.1880E+02   9.6248E+07   6.2500E+06
   1.1900E+02   9.7498E+07   6.2500E+06
   1.1920E+02   9.8748E+07   6.2500E+06
   1.1940E+02   9.9998E+07   6.2500E+06
   1.1960E+02   1.0125E+08   6.2500E+06
   1.1980E+02   1.0250E+08   6.2500E+06
   1.2000E+02   1.0375E+08   6.2500E+06
   1.2020E+02   1.0500E+08   6.2500E+06
   1.2040E+02   1.0625E+08   6.2500E+06
   1.2060E+02   1.0750E+08   6.2500E+06
   1.2080E+02   1.0875E+08   6.2500E+06
   1.2100E+02   1.1000E+08   6.2500E+06
   1.2120E+02   1.1125E+08   6.2500E+06
   1.2140E+02   1.1250E+08   6.2500E+06
   1.2160E+02   1.1375E+08   6.2500E+06
   1.2180E+02   1.1500E+08   6.2500E+06
   1.2200E+02   1.1625E+08   6.2500E+06
   1.2220E+02   1.1750E+08   6.2500E+06
   1.2240E+02   1.1875E+08   6.2500E+06
   1.2260E+02   1.2000E+08   6.2500E+06
   1.2280E+02   1.2125E+08   6.2500E+06
   1.2300E+02   1.2250E+08   6.2500E+06
   1.2320E+02   1.2375E+08   6.2500E+06
   1.2340E+02   1.2500E+08   6.2500E+06
   1.2360E+02   1.2625E+08   6.2500E+06
   1.2380E+02   1.2750E+08   6.2500E+06
   1.2400E+02   1.2875E+08   6.2500E+06
   1.2420E+02   1.3000E+08   6.2500E+06
   1.2440E+02   1.3125E+08   6.2500E+06
   1.2460E+02   1.3250E+08   6.2500E+06
   1.2480E+02   1.3375E+08   6.2500E+06
   1.2500E+02   1.3500E+08   6.2500E+06
   1.2520E+02   1.3625E+08   6.2500E+06
   1.2540E+02   1.3750E+08   6.2500E+06
   1.2560E+02   1.3875E+08   6.2500E+06
   1.2580E+02   1.4000E+08   6.2500E+06
   1.2600E+02   1.4125E+08   6.2500E+06
   1.2620E+02   1.4250E+08   6.2500E+06
   1.2640E+02   1.4375E+08   6.2500E+06
   1.2660E+02   1.4500E+08   6.2500E+06
   1.2680E+02   1.4625E+08   6.2500E+06
   1.2700E+02   1.4750E+08   6.2500E+06


 NUMBER OF CONNECTED LAKE SYSTEMS IN SIMULATION IS   0

 LAKE       PRECIP     EVAP     RUNOFF   WITHDRAW   BOTTOM     AREA
----------------------------------------------------------------------
   1     1.160E-02 1.030E-02 0.000E+00  0.000E+00 9.700E+01 6.250E+06




         C               INTERFACE CONDUCTANCES BETWEEN LAKE AND AQUIFER CELLS
   L     O          (IF TYPE = 6, CONDUCTANCE (L^2/T) IS BETWEEN AQUIFER CELL AND OVERLYING LAKE CELL.)
   A     L  L  T    (IF TYPE = 1 TO 4, CONDUCTANCES ARE PER UNIT SATURATED THICKNESS (L/T).)
   Y  R  U  A  Y
   E  O  M  K  P                        LAKEBED      C O N D U C T A N C E S
   R  W  N  E  E     DELTA Y   DELTA X  LEAKANCE   LAKEBED   AQUIFER  COMBINED
 _______________________________________________________________________________
   1  7  6  1  2    5.00E+02  1.00E+03  1.00E-01  5.00E+01  3.00E+01  1.88E+01
   1  8  6  1  2    5.00E+02  1.00E+03  1.00E-01  5.00E+01  3.00E+01  1.88E+01
   1  9  6  1  2    5.00E+02  1.00E+03  1.00E-01  5.00E+01  3.00E+01  1.88E+01
   1 10  6  1  2    5.00E+02  1.00E+03  1.00E-01  5.00E+01  3.00E+01  1.88E+01
   1 11  6  1  2    5.00E+02  1.00E+03  1.00E-01  5.00E+01  3.00E+01  1.88E+01
   1  6  7  1  3    1.00E+03  5.00E+02  1.00E-01  5.00E+01  3.00E+01  1.88E+01
   2  7  7  1  6    5.00E+02  5.00E+02  1.00E-01  2.50E+04  1.50E+06  2.46E+04
   2  8  7  1  6    5.00E+02  5.00E+02  1.00E-01  2.50E+04  1.50E+06  2.46E+04
   2  8  7  1  2    5.00E+02  5.00E+02  1.00E-01  5.00E+01  6.00E+01  2.73E+01
   2  9  7  1  6    5.00E+02  5.00E+02  1.00E-01  2.50E+04  1.50E+06  2.46E+04
   2  9  7  1  2    5.00E+02  5.00E+02  1.00E-01  5.00E+01  6.00E+01  2.73E+01
   2 10  7  1  6    5.00E+02  5.00E+02  1.00E-01  2.50E+04  1.50E+06  2.46E+04
   2 10  7  1  2    5.00E+02  5.00E+02  1.00E-01  5.00E+01  6.00E+01  2.73E+01
   2 11  7  1  6    5.00E+02  5.00E+02  1.00E-01  2.50E+04  1.50E+06  2.46E+04
   1 12  7  1  4    1.00E+03  5.00E+02  1.00E-01  5.00E+01  3.00E+01  1.88E+01
   1  6  8  1  3    1.00E+03  5.00E+02  1.00E-01  5.00E+01  3.00E+01  1.88E+01
   2  7  8  1  6    5.00E+02  5.00E+02  1.00E-01  2.50E+04  1.50E+06  2.46E+04
   2  7  8  1  3    5.00E+02  5.00E+02  1.00E-01  5.00E+01  6.00E+01  2.73E+01
   3  8  8  1  6    5.00E+02  5.00E+02  1.00E-01  2.50E+04  1.50E+06  2.46E+04
   3  9  8  1  6    5.00E+02  5.00E+02  1.00E-01  2.50E+04  1.50E+06  2.46E+04
   3 10  8  1  6    5.00E+02  5.00E+02  1.00E-01  2.50E+04  1.50E+06  2.46E+04
   2 11  8  1  6    5.00E+02  5.00E+02  1.00E-01  2.50E+04  1.50E+06  2.46E+04
   2 11  8  1  4    5.00E+02  5.00E+02  1.00E-01  5.00E+01  6.00E+01  2.73E+01
   1 12  8  1  4    1.00E+03  5.00E+02  1.00E-01  5.00E+01  3.00E+01  1.88E+01
   1  6  9  1  3    1.00E+03  5.00E+02  1.00E-01  5.00E+01  3.00E+01  1.88E+01
   2  7  9  1  6    5.00E+02  5.00E+02  1.00E-01  2.50E+04  1.50E+06  2.46E+04
   2  7  9  1  3    5.00E+02  5.00E+02  1.00E-01  5.00E+01  6.00E+01  2.73E+01
   3  8  9  1  6    5.00E+02  5.00E+02  1.00E-01  2.50E+04  1.50E+06  2.46E+04
   3  9  9  1  6    5.00E+02  5.00E+02  1.00E-01  2.50E+04  1.50E+06  2.46E+04
   3 10  9  1  6    5.00E+02  5.00E+02  1.00E-01  2.50E+04  1.50E+06  2.46E+04
   2 11  9  1  6    5.00E+02  5.00E+02  1.00E-01  2.50E+04  1.50E+06  2.46E+04
   2 11  9  1  4    5.00E+02  5.00E+02  1.00E-01  5.00E+01  6.00E+01  2.73E+01
   1 12  9  1  4    1.00E+03  5.00E+02  1.00E-01  5.00E+01  3.00E+01  1.88E+01
   1  6 10  1  3    1.00E+03  5.00E+02  1.00E-01  5.00E+01  3.00E+01  1.88E+01
   2  7 10  1  6    5.00E+02  5.00E+02  1.00E-01  2.50E+04  1.50E+06  2.46E+04
   2  7 10  1  3    5.00E+02  5.00E+02  1.00E-01  5.00E+01  6.00E+01  2.73E+01
   3  8 10  1  6    5.00E+02  5.00E+02  1.00E-01  2.50E+04  1.50E+06  2.46E+04
   3  9 10  1  6    5.00E+02  5.00E+02  1.00E-01  2.50E+04  1.50E+06  2.46E+04
   3 10 10  1  6    5.00E+02  5.00E+02  1.00E-01  2.50E+04  1.50E+06  2.46E+04
   2 11 10  1  6    5.00E+02  5.00E+02  1.00E-01  2.50E+04  1.50E+06  2.46E+04
   2 11 10  1  4    5.00E+02  5.00E+02  1.00E-01  5.00E+01  6.00E+01  2.73E+01
   1 12 10  1  4    1.00E+03  5.00E+02  1.00E-01  5.00E+01  3.00E+01  1.88E+01
   1  6 11  1  3    1.00E+03  5.00E+02  1.00E-01  5.00E+01  3.00E+01  1.88E+01
   2  7 11  1  6    5.00E+02  5.00E+02  1.00E-01  2.50E+04  1.50E+06  2.46E+04
   2  8 11  1  6    5.00E+02  5.00E+02  1.00E-01  2.50E+04  1.50E+06  2.46E+04
   2  8 11  1  1    5.00E+02  5.00E+02  1.00E-01  5.00E+01  6.00E+01  2.73E+01
   2  9 11  1  6    5.00E+02  5.00E+02  1.00E-01  2.50E+04  1.50E+06  2.46E+04
   2  9 11  1  1    5.00E+02  5.00E+02  1.00E-01  5.00E+01  6.00E+01  2.73E+01
   2 10 11  1  6    5.00E+02  5.00E+02  1.00E-01  2.50E+04  1.50E+06  2.46E+04
   2 10 11  1  1    5.00E+02  5.00E+02  1.00E-01  5.00E+01  6.00E+01  2.73E+01
   2 11 11  1  6    5.00E+02  5.00E+02  1.00E-01  2.50E+04  1.50E+06  2.46E+04
   1 12 11  1  4    1.00E+03  5.00E+02  1.00E-01  5.00E+01  3.00E+01  1.88E+01
   1  7 12  1  1    5.00E+02  1.00E+03  1.00E-01  5.00E+01  3.00E+01  1.88E+01
   1  8 12  1  1    5.00E+02  1.00E+03  1.00E-01  5.00E+01  3.00E+01  1.88E+01
   1  9 12  1  1    5.00E+02  1.00E+03  1.00E-01  5.00E+01  3.00E+01  1.88E+01
   1 10 12  1  1    5.00E+02  1.00E+03  1.00E-01  5.00E+01  3.00E+01  1.88E+01
   1 11 12  1  1    5.00E+02  1.00E+03  1.00E-01  5.00E+01  3.00E+01  1.88E+01


     NOTE: INFORMATION ABOUT CALCULATED LAKE/AQUIFER CONDUCTANCES WHEN USING BCF PACKAGE FOLLOWS: 

 IF WETDRY FLAG NOT TURNED ON, VERTICAL LEAKANCES ARE NOT SAVED:
 THEREFORE, LAKE/AQUIFER CONDUCTANCES ARE BASED SOLELY ON LAKEBED SPECIFICATION




 
 SOLVING FOR HEAD 
 ALL LAKES CONVERGED AFTER   8  ITERATIONS

 AVERAGE SEED = 0.00000194
 MINIMUM SEED = 0.00000137

     5 ITERATION PARAMETERS CALCULATED FROM AVERAGE SEED:

  0.000000E+00 0.962690E+00 0.998608E+00 0.999948E+00 0.999998E+00
 ALL LAKES CONVERGED AFTER   5  ITERATIONS
 ALL LAKES CONVERGED AFTER   5  ITERATIONS
 ALL LAKES CONVERGED AFTER   4  ITERATIONS
 ALL LAKES CONVERGED AFTER   3  ITERATIONS
 ALL LAKES CONVERGED AFTER   3  ITERATIONS
 ALL LAKES CONVERGED AFTER   3  ITERATIONS
 ALL LAKES CONVERGED AFTER   3  ITERATIONS
 ALL LAKES CONVERGED AFTER   3  ITERATIONS
 ALL LAKES CONVERGED AFTER   3  ITERATIONS
 ALL LAKES CONVERGED AFTER   3  ITERATIONS
 ALL LAKES CONVERGED AFTER   3  ITERATIONS
 ALL LAKES CONVERGED AFTER   2  ITERATIONS
 ALL LAKES CONVERGED AFTER   3  ITERATIONS
 ALL LAKES CONVERGED AFTER   2  ITERATIONS
 ALL LAKES CONVERGED AFTER   2  ITERATIONS
 ALL LAKES CONVERGED AFTER   2  ITERATIONS
 ALL LAKES CONVERGED AFTER   2  ITERATIONS
 ALL LAKES CONVERGED AFTER   2  ITERATIONS
 ALL LAKES CONVERGED AFTER   2  ITERATIONS
 ALL LAKES CONVERGED AFTER   2  ITERATIONS
 ALL LAKES CONVERGED AFTER   2  ITERATIONS
 ALL LAKES CONVERGED AFTER   2  ITERATIONS
 ALL LAKES CONVERGED AFTER   2  ITERATIONS
 ALL LAKES CONVERGED AFTER   1  ITERATIONS
 ALL LAKES CONVERGED AFTER   1  ITERATIONS

    26 ITERATIONS FOR TIME STEP   1 IN STRESS PERIOD    1

 MAXIMUM HEAD CHANGE FOR EACH ITERATION:

    HEAD CHANGE   HEAD CHANGE   HEAD CHANGE   HEAD CHANGE   HEAD CHANGE
  LAYER,ROW,COL LAYER,ROW,COL LAYER,ROW,COL LAYER,ROW,COL LAYER,ROW,COL
 ----------------------------------------------------------------------
      11.30         2.624        -1.066       -0.4638       -0.5788    
  (  5, 16,  2) (  3, 16,  2) (  5, 10,  8) (  3,  8, 10) (  3, 10,  8)
    -0.2121       -0.1463       -0.8640E-01   -0.1074       -0.4090E-01
  (  2,  7,  7) (  5, 10,  8) (  3,  8, 10) (  3, 10,  8) (  3,  8, 10)
    -0.4716E-01   -0.2111E-01   -0.2001E-01   -0.8639E-02   -0.1079E-01
  (  3,  8,  8) (  5,  9,  9) (  5, 10,  8) (  3,  8, 10) (  3, 10,  8)
    -0.3953E-02   -0.2724E-02   -0.1612E-02   -0.1999E-02   -0.7632E-03
  (  2,  7,  7) (  5, 10,  8) (  3,  8, 10) (  3, 10,  8) (  3,  8, 10)
    -0.8801E-03   -0.3929E-03   -0.3807E-03   -0.1612E-03   -0.1988E-03
  (  3,  8,  8) (  5,  9,  9) (  5, 10,  8) (  3,  8, 10) (  3, 10,  8)
    -0.6594E-04
  (  2,  7,  7)


 HEAD/DRAWDOWN PRINTOUT FLAG = 0     TOTAL BUDGET PRINTOUT FLAG = 1
 CELL-BY-CELL FLOW TERM FLAG = 1

 OUTPUT FLAGS FOR ALL LAYERS ARE THE SAME:
   HEAD    DRAWDOWN  HEAD  DRAWDOWN
 PRINTOUT  PRINTOUT  SAVE    SAVE
 ----------------------------------
     0         0       0       0


     0  LAKE CELLS ARE DRY.

 PERIOD     1     TIME STEP     1     TIME STEP LENGTH  1.6014E+01
 PERIOD TIME  1.6014E+01     TOTAL SIMULATION TIME  1.6014E+01


                 HYDROLOGIC BUDGET SUMMARIES FOR SIMULATED LAKES
     (ALL FLUID FLUXES ARE VOLUMES ADDED TO THE LAKE DURING PRESENT TIME STEP)
     -------------------------------------------------------------------------
 LAKE   STAGE     PRECIP       EVAP       RUNOFF
   1   110.26  1.1610E+06  1.0309E+06  0.0000E+00

            GROUND WATER            SURFACE WATER
 LAKE    INFLOW     OUTFLOW      INFLOW     OUTFLOW
   1  1.5175E+06  0.0000E+00  0.0000E+00  0.0000E+00

         WATER    CONNECTED LAKE   UPDATED     TIME-STEP          STAGE CHANGE
 LAKE     USE         INFLUX        VOLUME    SURFACE AREA   TIME STEP  CUMULATIVE
   1   0.0000E+00   0.0000E+00   4.2898E+07    6.2500E+06   2.6370E-01  2.6370E-01
 --------------------------------------------------------------------------------



            CUMULATIVE HYDROLOGIC BUDGET SUMMARIES FOR SIMULATED LAKES
     (ALL FLUID FLUXES ARE SUMS OF VOLUMES ADDED TO THE LAKE SINCE INITIAL TIME)
     ---------------------------------------------------------------------------
 LAKE       PRECIP       EVAP       RUNOFF
   1     1.1610E+06  1.0309E+06  0.0000E+00

            GROUND WATER            SURFACE WATER
 LAKE    INFLOW     OUTFLOW      INFLOW     OUTFLOW
   1  1.5175E+06  0.0000E+00  0.0000E+00  0.0000E+00

         WATER    CONNECTED LAKE
 LAKE     USE         INFLUX
   1   0.0000E+00   0.0000E+00
 --------------------------------------------------------------------------------

1
  VOLUMETRIC BUDGET FOR ENTIRE MODEL AT END OF TIME STEP  1 IN STRESS PERIOD   1
  ------------------------------------------------------------------------------

     CUMULATIVE VOLUMES      L**3       RATES FOR THIS TIME STEP      L**3/T
     ------------------                 ------------------------

           IN:                                      IN:
           ---                                      ---
             STORAGE =       31346.7051               STORAGE =        1957.4885
       CONSTANT HEAD =    61556832.0000         CONSTANT HEAD =     3844001.7500
                  ET =           0.0000                    ET =           0.0000
            RECHARGE =    27863902.0000              RECHARGE =     1740000.0000
     SPECIFIED FLOWS =           0.0000       SPECIFIED FLOWS =           0.0000
       LAKE  SEEPAGE =           0.0000         LAKE  SEEPAGE =           0.0000

            TOTAL IN =    89452080.0000              TOTAL IN =     5585959.0000

          OUT:                                     OUT:
          ----                                     ----
             STORAGE =    87934648.0000               STORAGE =     5491201.0000
       CONSTANT HEAD =           0.0000         CONSTANT HEAD =           0.0000
                  ET =           0.0000                    ET =           0.0000
            RECHARGE =           0.0000              RECHARGE =           0.0000
     SPECIFIED FLOWS =           0.0000       SPECIFIED FLOWS =           0.0000
       LAKE  SEEPAGE =     1517536.8750         LAKE  SEEPAGE =       94764.6953

           TOTAL OUT =    89452184.0000             TOTAL OUT =     5585965.5000

            IN - OUT =        -104.0000              IN - OUT =          -6.5000

 PERCENT DISCREPANCY =           0.00     PERCENT DISCREPANCY =           0.00






          TIME SUMMARY AT END OF TIME STEP   1 IN STRESS PERIOD    1
                    SECONDS     MINUTES      HOURS       DAYS        YEARS
                    -----------------------------------------------------------
   TIME STEP LENGTH 1.38359E+06  23060.      384.33      16.014     4.38432E-02
 STRESS PERIOD TIME 1.38359E+06  23060.      384.33      16.014     4.38432E-02
         TOTAL TIME 1.38359E+06  23060.      384.33      16.014     4.38432E-02
1
 
 SOLVING FOR HEAD 
 ALL LAKES CONVERGED AFTER   3  ITERATIONS
 ALL LAKES CONVERGED AFTER   2  ITERATIONS
 ALL LAKES CONVERGED AFTER   3  ITERATIONS
 ALL LAKES CONVERGED AFTER   2  ITERATIONS
 ALL LAKES CONVERGED AFTER   3  ITERATIONS
 ALL LAKES CONVERGED AFTER   2  ITERATIONS
 ALL LAKES CONVERGED AFTER   2  ITERATIONS
 ALL LAKES CONVERGED AFTER   2  ITERATIONS
 ALL LAKES CONVERGED AFTER   2  ITERATIONS
 ALL LAKES CONVERGED AFTER   2  ITERATIONS
 ALL LAKES CONVERGED AFTER   2  ITERATIONS
 ALL LAKES CONVERGED AFTER   2  ITERATIONS
 ALL LAKES CONVERGED AFTER   2  ITERATIONS
 ALL LAKES CONVERGED AFTER   2  ITERATIONS
 ALL LAKES CONVERGED AFTER   2  ITERATIONS
 ALL LAKES CONVERGED AFTER   2  ITERATIONS
 ALL LAKES CONVERGED AFTER   2  ITERATIONS
 ALL LAKES CONVERGED AFTER   2  ITERATIONS
 ALL LAKES CONVERGED AFTER   1  ITERATIONS
 ALL LAKES CONVERGED AFTER   1  ITERATIONS
    20 ITERATIONS FOR TIME STEP   2 IN STRESS PERIOD    1

 MAXIMUM HEAD CHANGE FOR EACH ITERATION:

    HEAD CHANGE   HEAD CHANGE   HEAD CHANGE   HEAD CHANGE   HEAD CHANGE
  LAYER,ROW,COL LAYER,ROW,COL LAYER,ROW,COL LAYER,ROW,COL LAYER,ROW,COL
 ----------------------------------------------------------------------
      8.299         2.350        0.8296        0.1189        0.3748E-01
  (  1,  2,  2) (  5, 10,  2) (  5,  9,  2) (  3, 10,  2) (  3, 10,  8)
     0.1391E-01    0.9675E-02    0.5753E-02    0.7167E-02    0.2742E-02
  (  2,  7,  7) (  5, 10,  8) (  3,  8, 10) (  3, 10,  8) (  3,  8, 10)
     0.3174E-02    0.1435E-02    0.1362E-02    0.6045E-03    0.7462E-03
  (  3,  8,  8) (  5,  9,  9) (  5, 10,  8) (  3,  8, 10) (  3, 10,  8)
     0.2775E-03    0.1840E-03    0.1133E-03    0.1419E-03    0.5864E-04
  (  3,  9, 10) (  5,  9,  9) (  3,  8, 10) (  3, 10,  8) (  2,  8, 11)


 HEAD/DRAWDOWN PRINTOUT FLAG = 0     TOTAL BUDGET PRINTOUT FLAG = 0
 CELL-BY-CELL FLOW TERM FLAG = 1

 OUTPUT FLAGS FOR ALL LAYERS ARE THE SAME:
   HEAD    DRAWDOWN  HEAD  DRAWDOWN
 PRINTOUT  PRINTOUT  SAVE    SAVE
 ----------------------------------
     0         0       0       0


     0  LAKE CELLS ARE DRY.

 PERIOD     1     TIME STEP     2     TIME STEP LENGTH  1.6334E+01
 PERIOD TIME  3.2348E+01     TOTAL SIMULATION TIME  3.2348E+01


                 HYDROLOGIC BUDGET SUMMARIES FOR SIMULATED LAKES
     (ALL FLUID FLUXES ARE VOLUMES ADDED TO THE LAKE DURING PRESENT TIME STEP)
     -------------------------------------------------------------------------
 LAKE   STAGE     PRECIP       EVAP       RUNOFF
   1   110.53  1.1842E+06  1.0515E+06  0.0000E+00

            GROUND WATER            SURFACE WATER
 LAKE    INFLOW     OUTFLOW      INFLOW     OUTFLOW
   1  1.5621E+06  0.0000E+00  0.0000E+00  0.0000E+00

         WATER    CONNECTED LAKE   UPDATED     TIME-STEP          STAGE CHANGE
 LAKE     USE         INFLUX        VOLUME    SURFACE AREA   TIME STEP  CUMULATIVE
   1   0.0000E+00   0.0000E+00   4.4593E+07    6.2500E+06   2.7114E-01  5.3483E-01
 --------------------------------------------------------------------------------



            CUMULATIVE HYDROLOGIC BUDGET SUMMARIES FOR SIMULATED LAKES
     (ALL FLUID FLUXES ARE SUMS OF VOLUMES ADDED TO THE LAKE SINCE INITIAL TIME)
     ---------------------------------------------------------------------------
 LAKE       PRECIP       EVAP       RUNOFF
   1     2.3452E+06  2.0824E+06  0.0000E+00

            GROUND WATER            SURFACE WATER
 LAKE    INFLOW     OUTFLOW      INFLOW     OUTFLOW
   1  3.0796E+06  0.0000E+00  0.0000E+00  0.0000E+00

         WATER    CONNECTED LAKE
 LAKE     USE         INFLUX
   1   0.0000E+00   0.0000E+00
 --------------------------------------------------------------------------------

 
 SOLVING FOR HEAD 
 ALL LAKES CONVERGED AFTER   3  ITERATIONS
 ALL LAKES CONVERGED AFTER   3  ITERATIONS
 ALL LAKES CONVERGED AFTER   3  ITERATIONS
 ALL LAKES CONVERGED AFTER   3  ITERATIONS
 ALL LAKES CONVERGED AFTER   3  ITERATIONS
 ALL LAKES CONVERGED AFTER   2  ITERATIONS
 ALL LAKES CONVERGED AFTER   3  ITERATIONS
 ALL LAKES CONVERGED AFTER   3  ITERATIONS
 ALL LAKES CONVERGED AFTER   2  ITERATIONS
 ALL LAKES CONVERGED AFTER   2  ITERATIONS
 ALL LAKES CONVERGED AFTER   2  ITERATIONS
 ALL LAKES CONVERGED AFTER   2  ITERATIONS
 ALL LAKES CONVERGED AFTER   2  ITERATIONS
 ALL LAKES CONVERGED AFTER   2  ITERATIONS
 ALL LAKES CONVERGED AFTER   2  ITERATIONS
 ALL LAKES CONVERGED AFTER   2  ITERATIONS
 ALL LAKES CONVERGED AFTER   2  ITERATIONS
 ALL LAKES CONVERGED AFTER   2  ITERATIONS
 ALL LAKES CONVERGED AFTER   1  ITERATIONS
 ALL LAKES CONVERGED AFTER   1  ITERATIONS
    20 ITERATIONS FOR TIME STEP   3 IN STRESS PERIOD    1

 MAXIMUM HEAD CHANGE FOR EACH ITERATION:

    HEAD CHANGE   HEAD CHANGE   HEAD CHANGE   HEAD CHANGE   HEAD CHANGE
  LAYER,ROW,COL LAYER,ROW,COL LAYER,ROW,COL LAYER,ROW,COL LAYER,ROW,COL
 ----------------------------------------------------------------------
      5.425         2.033        0.6705        0.9136E-01    0.4090E-01
  (  1,  2,  2) (  5, 10,  2) (  5,  8,  2) (  3, 11,  2) (  3, 10,  8)
     0.1533E-01    0.1072E-01    0.6423E-02    0.8014E-02    0.3103E-02
  (  2,  7,  7) (  5, 10,  8) (  3,  8, 10) (  3, 10,  8) (  3,  8, 10)
     0.3586E-02    0.1634E-02    0.1558E-02    0.6867E-03    0.8565E-03
  (  3,  8,  8) (  5,  9,  9) (  5, 10,  8) (  2,  9, 11) (  3, 10,  8)
     0.3275E-03    0.2211E-03    0.1341E-03    0.1708E-03    0.6900E-04
  (  2,  7,  7) (  5,  9,  8) (  3,  8, 10) (  3, 10,  8) (  2,  9, 11)


 HEAD/DRAWDOWN PRINTOUT FLAG = 0     TOTAL BUDGET PRINTOUT FLAG = 0
 CELL-BY-CELL FLOW TERM FLAG = 1

 OUTPUT FLAGS FOR ALL LAYERS ARE THE SAME:
   HEAD    DRAWDOWN  HEAD  DRAWDOWN
 PRINTOUT  PRINTOUT  SAVE    SAVE
 ----------------------------------
     0         0       0       0


     0  LAKE CELLS ARE DRY.

 PERIOD     1     TIME STEP     3     TIME STEP LENGTH  1.6661E+01
 PERIOD TIME  4.9008E+01     TOTAL SIMULATION TIME  4.9008E+01


                 HYDROLOGIC BUDGET SUMMARIES FOR SIMULATED LAKES
     (ALL FLUID FLUXES ARE VOLUMES ADDED TO THE LAKE DURING PRESENT TIME STEP)
     -------------------------------------------------------------------------
 LAKE   STAGE     PRECIP       EVAP       RUNOFF
   1   110.82  1.2079E+06  1.0725E+06  0.0000E+00

            GROUND WATER            SURFACE WATER
 LAKE    INFLOW     OUTFLOW      INFLOW     OUTFLOW
   1  1.6589E+06  0.0000E+00  0.0000E+00  0.0000E+00

         WATER    CONNECTED LAKE   UPDATED     TIME-STEP          STAGE CHANGE
 LAKE     USE         INFLUX        VOLUME    SURFACE AREA   TIME STEP  CUMULATIVE
   1   0.0000E+00   0.0000E+00   4.6387E+07    6.2500E+06   2.8705E-01  8.2188E-01
 --------------------------------------------------------------------------------



            CUMULATIVE HYDROLOGIC BUDGET SUMMARIES FOR SIMULATED LAKES
     (ALL FLUID FLUXES ARE SUMS OF VOLUMES ADDED TO THE LAKE SINCE INITIAL TIME)
     ---------------------------------------------------------------------------
 LAKE       PRECIP       EVAP       RUNOFF
   1     3.5531E+06  3.1549E+06  0.0000E+00

            GROUND WATER            SURFACE WATER
 LAKE    INFLOW     OUTFLOW      INFLOW     OUTFLOW
   1  4.7385E+06  0.0000E+00  0.0000E+00  0.0000E+00

         WATER    CONNECTED LAKE
 LAKE     USE         INFLUX
   1   0.0000E+00   0.0000E+00
 --------------------------------------------------------------------------------

 
 SOLVING FOR HEAD 
 ALL LAKES CONVERGED AFTER   3  ITERATIONS
 ALL LAKES CONVERGED AFTER   3  ITERATIONS
 ALL LAKES CONVERGED AFTER   3  ITERATIONS
 ALL LAKES CONVERGED AFTER   3  ITERATIONS
 ALL LAKES CONVERGED AFTER   2  ITERATIONS
 ALL LAKES CONVERGED AFTER   3  ITERATIONS
 ALL LAKES CONVERGED AFTER   3  ITERATIONS
 ALL LAKES CONVERGED AFTER   2  ITERATIONS
 ALL LAKES CONVERGED AFTER   2  ITERATIONS
 ALL LAKES CONVERGED AFTER   2  ITERATIONS
 ALL LAKES CONVERGED AFTER   2  ITERATIONS
 ALL LAKES CONVERGED AFTER   2  ITERATIONS
 ALL LAKES CONVERGED AFTER   2  ITERATIONS
 ALL LAKES CONVERGED AFTER   2  ITERATIONS
 ALL LAKES CONVERGED AFTER   2  ITERATIONS
 ALL LAKES CONVERGED AFTER   2  ITERATIONS
 ALL LAKES CONVERGED AFTER   2  ITERATIONS
 ALL LAKES CONVERGED AFTER   2  ITERATIONS
 ALL LAKES CONVERGED AFTER   1  ITERATIONS
 ALL LAKES CONVERGED AFTER   1  ITERATIONS
    20 ITERATIONS FOR TIME STEP   4 IN STRESS PERIOD    1

 MAXIMUM HEAD CHANGE FOR EACH ITERATION:

    HEAD CHANGE   HEAD CHANGE   HEAD CHANGE   HEAD CHANGE   HEAD CHANGE
  LAYER,ROW,COL LAYER,ROW,COL LAYER,ROW,COL LAYER,ROW,COL LAYER,ROW,COL
 ----------------------------------------------------------------------
      3.706         1.686        0.5344        0.7213E-01    0.4421E-01
  (  1,  3,  2) (  5, 10,  2) (  5,  8,  2) (  3, 11,  2) (  3, 10,  8)
     0.1671E-01    0.1176E-01    0.7093E-02    0.8871E-02    0.3464E-02
  (  2,  7,  7) (  5, 10,  8) (  3,  8, 10) (  3, 10,  8) (  3,  8, 10)
     0.4016E-02    0.1835E-02    0.1766E-02    0.7857E-03    0.9839E-03
  (  3,  8,  8) (  5,  9,  9) (  5, 10,  8) (  3,  8, 10) (  3, 10,  8)
     0.3662E-03    0.2565E-03    0.1646E-03    0.1989E-03    0.8029E-04
  (  3, 10,  9) (  5,  9,  7) (  3,  8, 10) (  3, 10,  8) (  3,  8, 10)


 HEAD/DRAWDOWN PRINTOUT FLAG = 0     TOTAL BUDGET PRINTOUT FLAG = 0
 CELL-BY-CELL FLOW TERM FLAG = 1

 OUTPUT FLAGS FOR ALL LAYERS ARE THE SAME:
   HEAD    DRAWDOWN  HEAD  DRAWDOWN
 PRINTOUT  PRINTOUT  SAVE    SAVE
 ----------------------------------
     0         0       0       0


     0  LAKE CELLS ARE DRY.

 PERIOD     1     TIME STEP     4     TIME STEP LENGTH  1.6994E+01
 PERIOD TIME  6.6002E+01     TOTAL SIMULATION TIME  6.6002E+01


                 HYDROLOGIC BUDGET SUMMARIES FOR SIMULATED LAKES
     (ALL FLUID FLUXES ARE VOLUMES ADDED TO THE LAKE DURING PRESENT TIME STEP)
     -------------------------------------------------------------------------
 LAKE   STAGE     PRECIP       EVAP       RUNOFF
   1   111.13  1.2321E+06  1.0940E+06  0.0000E+00

            GROUND WATER            SURFACE WATER
 LAKE    INFLOW     OUTFLOW      INFLOW     OUTFLOW
   1  1.7726E+06  0.0000E+00  0.0000E+00  0.0000E+00

         WATER    CONNECTED LAKE   UPDATED     TIME-STEP          STAGE CHANGE
 LAKE     USE         INFLUX        VOLUME    SURFACE AREA   TIME STEP  CUMULATIVE
   1   0.0000E+00   0.0000E+00   4.8297E+07    6.2500E+06   3.0564E-01  1.1275E+00
 --------------------------------------------------------------------------------



            CUMULATIVE HYDROLOGIC BUDGET SUMMARIES FOR SIMULATED LAKES
     (ALL FLUID FLUXES ARE SUMS OF VOLUMES ADDED TO THE LAKE SINCE INITIAL TIME)
     ---------------------------------------------------------------------------
 LAKE       PRECIP       EVAP       RUNOFF
   1     4.7852E+06  4.2489E+06  0.0000E+00

            GROUND WATER            SURFACE WATER
 LAKE    INFLOW     OUTFLOW      INFLOW     OUTFLOW
   1  6.5111E+06  0.0000E+00  0.0000E+00  0.0000E+00

         WATER    CONNECTED LAKE
 LAKE     USE         INFLUX
   1   0.0000E+00   0.0000E+00
 --------------------------------------------------------------------------------

 
 SOLVING FOR HEAD 
 ALL LAKES CONVERGED AFTER   3  ITERATIONS
 ALL LAKES CONVERGED AFTER   3  ITERATIONS
 ALL LAKES CONVERGED AFTER   3  ITERATIONS
 ALL LAKES CONVERGED AFTER   3  ITERATIONS
 ALL LAKES CONVERGED AFTER   2  ITERATIONS
 ALL LAKES CONVERGED AFTER   2  ITERATIONS
 ALL LAKES CONVERGED AFTER   2  ITERATIONS
 ALL LAKES CONVERGED AFTER   2  ITERATIONS
 ALL LAKES CONVERGED AFTER   2  ITERATIONS
 ALL LAKES CONVERGED AFTER   2  ITERATIONS
 ALL LAKES CONVERGED AFTER   2  ITERATIONS
 ALL LAKES CONVERGED AFTER   2  ITERATIONS
 ALL LAKES CONVERGED AFTER   2  ITERATIONS
 ALL LAKES CONVERGED AFTER   2  ITERATIONS
 ALL LAKES CONVERGED AFTER   2  ITERATIONS
 ALL LAKES CONVERGED AFTER   2  ITERATIONS
 ALL LAKES CONVERGED AFTER   2  ITERATIONS
 ALL LAKES CONVERGED AFTER   2  ITERATIONS
 ALL LAKES CONVERGED AFTER   1  ITERATIONS
 ALL LAKES CONVERGED AFTER   1  ITERATIONS
    20 ITERATIONS FOR TIME STEP   5 IN STRESS PERIOD    1

 MAXIMUM HEAD CHANGE FOR EACH ITERATION:

    HEAD CHANGE   HEAD CHANGE   HEAD CHANGE   HEAD CHANGE   HEAD CHANGE
  LAYER,ROW,COL LAYER,ROW,COL LAYER,ROW,COL LAYER,ROW,COL LAYER,ROW,COL
 ----------------------------------------------------------------------
      2.791         1.369        0.5130        0.6695E-01    0.4786E-01
  (  1, 15,  3) (  5, 10,  2) (  5,  8,  3) (  4, 10,  3) (  3, 10,  8)
     0.1825E-01    0.1292E-01    0.7853E-02    0.9841E-02    0.3876E-02
  (  2,  7,  7) (  5, 10,  8) (  3,  8, 10) (  3, 10,  8) (  3,  8, 10)
     0.4494E-02    0.2068E-02    0.1996E-02    0.8972E-03    0.1124E-02
  (  3,  8,  8) (  5,  9,  9) (  5, 10,  8) (  3,  8, 10) (  3, 10,  8)
     0.4228E-03    0.3052E-03    0.1856E-03    0.2279E-03    0.9848E-04
  (  2,  7,  7) (  5, 10,  8) (  3,  8, 10) (  3, 10,  8) (  2,  8, 11)


 HEAD/DRAWDOWN PRINTOUT FLAG = 0     TOTAL BUDGET PRINTOUT FLAG = 0
 CELL-BY-CELL FLOW TERM FLAG = 1

 OUTPUT FLAGS FOR ALL LAYERS ARE THE SAME:
   HEAD    DRAWDOWN  HEAD  DRAWDOWN
 PRINTOUT  PRINTOUT  SAVE    SAVE
 ----------------------------------
     0         0       0       0


     0  LAKE CELLS ARE DRY.

 PERIOD     1     TIME STEP     5     TIME STEP LENGTH  1.7334E+01
 PERIOD TIME  8.3336E+01     TOTAL SIMULATION TIME  8.3336E+01


                 HYDROLOGIC BUDGET SUMMARIES FOR SIMULATED LAKES
     (ALL FLUID FLUXES ARE VOLUMES ADDED TO THE LAKE DURING PRESENT TIME STEP)
     -------------------------------------------------------------------------
 LAKE   STAGE     PRECIP       EVAP       RUNOFF
   1   111.45  1.2567E+06  1.1159E+06  0.0000E+00

            GROUND WATER            SURFACE WATER
 LAKE    INFLOW     OUTFLOW      INFLOW     OUTFLOW
   1  1.9019E+06  0.0000E+00  0.0000E+00  0.0000E+00

         WATER    CONNECTED LAKE   UPDATED     TIME-STEP          STAGE CHANGE
 LAKE     USE         INFLUX        VOLUME    SURFACE AREA   TIME STEP  CUMULATIVE
   1   0.0000E+00   0.0000E+00   5.0339E+07    6.2500E+06   3.2680E-01  1.4543E+00
 --------------------------------------------------------------------------------



            CUMULATIVE HYDROLOGIC BUDGET SUMMARIES FOR SIMULATED LAKES
     (ALL FLUID FLUXES ARE SUMS OF VOLUMES ADDED TO THE LAKE SINCE INITIAL TIME)
     ---------------------------------------------------------------------------
 LAKE       PRECIP       EVAP       RUNOFF
   1     6.0419E+06  5.3648E+06  0.0000E+00

            GROUND WATER            SURFACE WATER
 LAKE    INFLOW     OUTFLOW      INFLOW     OUTFLOW
   1  8.4130E+06  0.0000E+00  0.0000E+00  0.0000E+00

         WATER    CONNECTED LAKE
 LAKE     USE         INFLUX
   1   0.0000E+00   0.0000E+00
 --------------------------------------------------------------------------------

 
 SOLVING FOR HEAD 
 ALL LAKES CONVERGED AFTER   2  ITERATIONS
 ALL LAKES CONVERGED AFTER   3  ITERATIONS
 ALL LAKES CONVERGED AFTER   2  ITERATIONS
 ALL LAKES CONVERGED AFTER   3  ITERATIONS
 ALL LAKES CONVERGED AFTER   2  ITERATIONS
 ALL LAKES CONVERGED AFTER   3  ITERATIONS
 ALL LAKES CONVERGED AFTER   3  ITERATIONS
 ALL LAKES CONVERGED AFTER   2  ITERATIONS
 ALL LAKES CONVERGED AFTER   2  ITERATIONS
 ALL LAKES CONVERGED AFTER   2  ITERATIONS
 ALL LAKES CONVERGED AFTER   2  ITERATIONS
 ALL LAKES CONVERGED AFTER   2  ITERATIONS
 ALL LAKES CONVERGED AFTER   2  ITERATIONS
 ALL LAKES CONVERGED AFTER   2  ITERATIONS
 ALL LAKES CONVERGED AFTER   2  ITERATIONS
 ALL LAKES CONVERGED AFTER   2  ITERATIONS
 ALL LAKES CONVERGED AFTER   2  ITERATIONS
 ALL LAKES CONVERGED AFTER   2  ITERATIONS
 ALL LAKES CONVERGED AFTER   1  ITERATIONS
 ALL LAKES CONVERGED AFTER   2  ITERATIONS
 ALL LAKES CONVERGED AFTER   1  ITERATIONS
 ALL LAKES CONVERGED AFTER   1  ITERATIONS
    22 ITERATIONS FOR TIME STEP   6 IN STRESS PERIOD    1

 MAXIMUM HEAD CHANGE FOR EACH ITERATION:

    HEAD CHANGE   HEAD CHANGE   HEAD CHANGE   HEAD CHANGE   HEAD CHANGE
  LAYER,ROW,COL LAYER,ROW,COL LAYER,ROW,COL LAYER,ROW,COL LAYER,ROW,COL
 ----------------------------------------------------------------------
      2.572         1.101        0.4799        0.6093E-01    0.5189E-01
  (  1,  3,  3) (  5, 11,  3) (  5,  8,  3) (  4, 11,  3) (  3, 10,  8)
     0.1996E-01    0.1421E-01    0.8698E-02    0.1092E-01    0.4338E-02
  (  2,  7,  7) (  5, 10,  8) (  3,  8, 10) (  3, 10,  8) (  3,  8, 10)
     0.5037E-02    0.2334E-02    0.2255E-02    0.1018E-02    0.1284E-02
  (  3,  8,  8) (  5,  9,  9) (  5, 10,  8) (  3,  8, 10) (  3, 10,  8)
     0.4906E-03    0.3532E-03    0.2205E-03    0.2665E-03    0.1104E-03
  (  3,  9, 10) (  5, 10,  8) (  2,  9, 11) (  4, 10,  8) (  3,  8, 10)
     0.1310E-03    0.5862E-04
  (  3,  8,  8) (  2,  9, 11)


 HEAD/DRAWDOWN PRINTOUT FLAG = 0     TOTAL BUDGET PRINTOUT FLAG = 0
 CELL-BY-CELL FLOW TERM FLAG = 1

 OUTPUT FLAGS FOR ALL LAYERS ARE THE SAME:
   HEAD    DRAWDOWN  HEAD  DRAWDOWN
 PRINTOUT  PRINTOUT  SAVE    SAVE
 ----------------------------------
     0         0       0       0


     0  LAKE CELLS ARE DRY.

 PERIOD     1     TIME STEP     6     TIME STEP LENGTH  1.7680E+01
 PERIOD TIME  1.0102E+02     TOTAL SIMULATION TIME  1.0102E+02


                 HYDROLOGIC BUDGET SUMMARIES FOR SIMULATED LAKES
     (ALL FLUID FLUXES ARE VOLUMES ADDED TO THE LAKE DURING PRESENT TIME STEP)
     -------------------------------------------------------------------------
 LAKE   STAGE     PRECIP       EVAP       RUNOFF
   1   111.80  1.2818E+06  1.1382E+06  0.0000E+00

            GROUND WATER            SURFACE WATER
 LAKE    INFLOW     OUTFLOW      INFLOW     OUTFLOW
   1  2.0472E+06  0.0000E+00  0.0000E+00  0.0000E+00

         WATER    CONNECTED LAKE   UPDATED     TIME-STEP          STAGE CHANGE
 LAKE     USE         INFLUX        VOLUME    SURFACE AREA   TIME STEP  CUMULATIVE
   1   0.0000E+00   0.0000E+00   5.2530E+07    6.2500E+06   3.5051E-01  1.8048E+00
 --------------------------------------------------------------------------------



            CUMULATIVE HYDROLOGIC BUDGET SUMMARIES FOR SIMULATED LAKES
     (ALL FLUID FLUXES ARE SUMS OF VOLUMES ADDED TO THE LAKE SINCE INITIAL TIME)
     ---------------------------------------------------------------------------
 LAKE       PRECIP       EVAP       RUNOFF
   1     7.3237E+06  6.5029E+06  0.0000E+00

            GROUND WATER            SURFACE WATER
 LAKE    INFLOW     OUTFLOW      INFLOW     OUTFLOW
   1  1.0460E+07  0.0000E+00  0.0000E+00  0.0000E+00

         WATER    CONNECTED LAKE
 LAKE     USE         INFLUX
   1   0.0000E+00   0.0000E+00
 --------------------------------------------------------------------------------

 
 SOLVING FOR HEAD 
 ALL LAKES CONVERGED AFTER   3  ITERATIONS
 ALL LAKES CONVERGED AFTER   2  ITERATIONS
 ALL LAKES CONVERGED AFTER   3  ITERATIONS
 ALL LAKES CONVERGED AFTER   3  ITERATIONS
 ALL LAKES CONVERGED AFTER   3  ITERATIONS
 ALL LAKES CONVERGED AFTER   2  ITERATIONS
 ALL LAKES CONVERGED AFTER   2  ITERATIONS
 ALL LAKES CONVERGED AFTER   2  ITERATIONS
 ALL LAKES CONVERGED AFTER   2  ITERATIONS
 ALL LAKES CONVERGED AFTER   2  ITERATIONS
 ALL LAKES CONVERGED AFTER   2  ITERATIONS
 ALL LAKES CONVERGED AFTER   2  ITERATIONS
 ALL LAKES CONVERGED AFTER   2  ITERATIONS
 ALL LAKES CONVERGED AFTER   2  ITERATIONS
 ALL LAKES CONVERGED AFTER   2  ITERATIONS
 ALL LAKES CONVERGED AFTER   2  ITERATIONS
 ALL LAKES CONVERGED AFTER   2  ITERATIONS
 ALL LAKES CONVERGED AFTER   2  ITERATIONS
 ALL LAKES CONVERGED AFTER   1  ITERATIONS
 ALL LAKES CONVERGED AFTER   2  ITERATIONS
 ALL LAKES CONVERGED AFTER   1  ITERATIONS
 ALL LAKES CONVERGED AFTER   1  ITERATIONS
    22 ITERATIONS FOR TIME STEP   7 IN STRESS PERIOD    1

 MAXIMUM HEAD CHANGE FOR EACH ITERATION:

    HEAD CHANGE   HEAD CHANGE   HEAD CHANGE   HEAD CHANGE   HEAD CHANGE
  LAYER,ROW,COL LAYER,ROW,COL LAYER,ROW,COL LAYER,ROW,COL LAYER,ROW,COL
 ----------------------------------------------------------------------
      2.251         1.062        0.4505        0.5825E-01    0.5633E-01
  (  1,  3,  3) (  5, 11,  3) (  5,  8,  3) (  4, 11,  3) (  3, 10,  8)
     0.2185E-01    0.1565E-01    0.9645E-02    0.1213E-01    0.4870E-02
  (  2,  7,  7) (  5, 10,  8) (  3,  8, 10) (  3, 10,  8) (  3,  8, 10)
     0.5655E-02    0.2643E-02    0.2565E-02    0.1170E-02    0.1473E-02
  (  3,  8,  8) (  5,  9,  9) (  5, 10,  8) (  3,  8, 10) (  3, 10,  8)
     0.5730E-03    0.4101E-03    0.2481E-03    0.3152E-03    0.1282E-03
  (  2,  7,  7) (  5, 10,  8) (  3,  9, 10) (  5, 10,  8) (  2,  8, 11)
     0.1428E-03    0.6678E-04
  (  2, 11, 11) (  5,  9,  9)


 HEAD/DRAWDOWN PRINTOUT FLAG = 0     TOTAL BUDGET PRINTOUT FLAG = 0
 CELL-BY-CELL FLOW TERM FLAG = 1

 OUTPUT FLAGS FOR ALL LAYERS ARE THE SAME:
   HEAD    DRAWDOWN  HEAD  DRAWDOWN
 PRINTOUT  PRINTOUT  SAVE    SAVE
 ----------------------------------
     0         0       0       0


     0  LAKE CELLS ARE DRY.

 PERIOD     1     TIME STEP     7     TIME STEP LENGTH  1.8034E+01
 PERIOD TIME  1.1905E+02     TOTAL SIMULATION TIME  1.1905E+02


                 HYDROLOGIC BUDGET SUMMARIES FOR SIMULATED LAKES
     (ALL FLUID FLUXES ARE VOLUMES ADDED TO THE LAKE DURING PRESENT TIME STEP)
     -------------------------------------------------------------------------
 LAKE   STAGE     PRECIP       EVAP       RUNOFF
   1   112.18  1.3075E+06  1.1609E+06  0.0000E+00

            GROUND WATER            SURFACE WATER
 LAKE    INFLOW     OUTFLOW      INFLOW     OUTFLOW
   1  2.2082E+06  0.0000E+00  0.0000E+00  0.0000E+00

         WATER    CONNECTED LAKE   UPDATED     TIME-STEP          STAGE CHANGE
 LAKE     USE         INFLUX        VOLUME    SURFACE AREA   TIME STEP  CUMULATIVE
   1   0.0000E+00   0.0000E+00   5.4884E+07    6.2500E+06   3.7668E-01  2.1815E+00
 --------------------------------------------------------------------------------



            CUMULATIVE HYDROLOGIC BUDGET SUMMARIES FOR SIMULATED LAKES
     (ALL FLUID FLUXES ARE SUMS OF VOLUMES ADDED TO THE LAKE SINCE INITIAL TIME)
     ---------------------------------------------------------------------------
 LAKE       PRECIP       EVAP       RUNOFF
   1     8.6312E+06  7.6639E+06  0.0000E+00

            GROUND WATER            SURFACE WATER
 LAKE    INFLOW     OUTFLOW      INFLOW     OUTFLOW
   1  1.2668E+07  0.0000E+00  0.0000E+00  0.0000E+00

         WATER    CONNECTED LAKE
 LAKE     USE         INFLUX
   1   0.0000E+00   0.0000E+00
 --------------------------------------------------------------------------------

 
 SOLVING FOR HEAD 
 ALL LAKES CONVERGED AFTER   3  ITERATIONS
 ALL LAKES CONVERGED AFTER   3  ITERATIONS
 ALL LAKES CONVERGED AFTER   3  ITERATIONS
 ALL LAKES CONVERGED AFTER   2  ITERATIONS
 ALL LAKES CONVERGED AFTER   3  ITERATIONS
 ALL LAKES CONVERGED AFTER   3  ITERATIONS
 ALL LAKES CONVERGED AFTER   2  ITERATIONS
 ALL LAKES CONVERGED AFTER   2  ITERATIONS
 ALL LAKES CONVERGED AFTER   3  ITERATIONS
 ALL LAKES CONVERGED AFTER   2  ITERATIONS
 ALL LAKES CONVERGED AFTER   2  ITERATIONS
 ALL LAKES CONVERGED AFTER   2  ITERATIONS
 ALL LAKES CONVERGED AFTER   2  ITERATIONS
 ALL LAKES CONVERGED AFTER   2  ITERATIONS
 ALL LAKES CONVERGED AFTER   2  ITERATIONS
 ALL LAKES CONVERGED AFTER   2  ITERATIONS
 ALL LAKES CONVERGED AFTER   2  ITERATIONS
 ALL LAKES CONVERGED AFTER   2  ITERATIONS
 ALL LAKES CONVERGED AFTER   2  ITERATIONS
 ALL LAKES CONVERGED AFTER   2  ITERATIONS
 ALL LAKES CONVERGED AFTER   1  ITERATIONS
 ALL LAKES CONVERGED AFTER   1  ITERATIONS
    22 ITERATIONS FOR TIME STEP   8 IN STRESS PERIOD    1

 MAXIMUM HEAD CHANGE FOR EACH ITERATION:

    HEAD CHANGE   HEAD CHANGE   HEAD CHANGE   HEAD CHANGE   HEAD CHANGE
  LAYER,ROW,COL LAYER,ROW,COL LAYER,ROW,COL LAYER,ROW,COL LAYER,ROW,COL
 ----------------------------------------------------------------------
      1.932         1.008        0.4193        0.5499E-01    0.6123E-01
  (  1, 14,  3) (  5, 11,  3) (  5,  8,  3) (  4, 11,  3) (  3, 10,  8)
     0.2395E-01    0.1724E-01    0.1069E-01    0.1348E-01    0.5462E-02
  (  2,  7,  7) (  5, 10,  8) (  3,  8, 10) (  3, 10,  8) (  3,  8, 10)
     0.6357E-02    0.2986E-02    0.2909E-02    0.1341E-02    0.1682E-02
  (  3,  8,  8) (  5,  9,  9) (  5, 10,  8) (  3,  8, 10) (  3, 10,  8)
     0.6495E-03    0.4804E-03    0.2910E-03    0.3717E-03    0.1569E-03
  (  2,  7,  7) (  5, 10,  8) (  2,  9, 11) (  3, 10,  8) (  2,  7,  9)
     0.1774E-03    0.7802E-04
  (  3,  8,  8) (  5,  9,  9)


 HEAD/DRAWDOWN PRINTOUT FLAG = 0     TOTAL BUDGET PRINTOUT FLAG = 0
 CELL-BY-CELL FLOW TERM FLAG = 1

 OUTPUT FLAGS FOR ALL LAYERS ARE THE SAME:
   HEAD    DRAWDOWN  HEAD  DRAWDOWN
 PRINTOUT  PRINTOUT  SAVE    SAVE
 ----------------------------------
     0         0       0       0


     0  LAKE CELLS ARE DRY.

 PERIOD     1     TIME STEP     8     TIME STEP LENGTH  1.8395E+01
 PERIOD TIME  1.3745E+02     TOTAL SIMULATION TIME  1.3745E+02


                 HYDROLOGIC BUDGET SUMMARIES FOR SIMULATED LAKES
     (ALL FLUID FLUXES ARE VOLUMES ADDED TO THE LAKE DURING PRESENT TIME STEP)
     -------------------------------------------------------------------------
 LAKE   STAGE     PRECIP       EVAP       RUNOFF
   1   112.59  1.3336E+06  1.1842E+06  0.0000E+00

            GROUND WATER            SURFACE WATER
 LAKE    INFLOW     OUTFLOW      INFLOW     OUTFLOW
   1  2.3861E+06  0.0000E+00  0.0000E+00  0.0000E+00

         WATER    CONNECTED LAKE   UPDATED     TIME-STEP          STAGE CHANGE
 LAKE     USE         INFLUX        VOLUME    SURFACE AREA   TIME STEP  CUMULATIVE
   1   0.0000E+00   0.0000E+00   5.7419E+07    6.2500E+06   4.0560E-01  2.5871E+00
 --------------------------------------------------------------------------------



            CUMULATIVE HYDROLOGIC BUDGET SUMMARIES FOR SIMULATED LAKES
     (ALL FLUID FLUXES ARE SUMS OF VOLUMES ADDED TO THE LAKE SINCE INITIAL TIME)
     ---------------------------------------------------------------------------
 LAKE       PRECIP       EVAP       RUNOFF
   1     9.9648E+06  8.8480E+06  0.0000E+00

            GROUND WATER            SURFACE WATER
 LAKE    INFLOW     OUTFLOW      INFLOW     OUTFLOW
   1  1.5055E+07  0.0000E+00  0.0000E+00  0.0000E+00

         WATER    CONNECTED LAKE
 LAKE     USE         INFLUX
   1   0.0000E+00   0.0000E+00
 --------------------------------------------------------------------------------

 
 SOLVING FOR HEAD 
 ALL LAKES CONVERGED AFTER   3  ITERATIONS
 ALL LAKES CONVERGED AFTER   3  ITERATIONS
 ALL LAKES CONVERGED AFTER   3  ITERATIONS
 ALL LAKES CONVERGED AFTER   2  ITERATIONS
 ALL LAKES CONVERGED AFTER   2  ITERATIONS
 ALL LAKES CONVERGED AFTER   3  ITERATIONS
 ALL LAKES CONVERGED AFTER   2  ITERATIONS
 ALL LAKES CONVERGED AFTER   3  ITERATIONS
 ALL LAKES CONVERGED AFTER   3  ITERATIONS
 ALL LAKES CONVERGED AFTER   2  ITERATIONS
 ALL LAKES CONVERGED AFTER   2  ITERATIONS
 ALL LAKES CONVERGED AFTER   2  ITERATIONS
 ALL LAKES CONVERGED AFTER   2  ITERATIONS
 ALL LAKES CONVERGED AFTER   2  ITERATIONS
 ALL LAKES CONVERGED AFTER   2  ITERATIONS
 ALL LAKES CONVERGED AFTER   2  ITERATIONS
 ALL LAKES CONVERGED AFTER   2  ITERATIONS
 ALL LAKES CONVERGED AFTER   2  ITERATIONS
 ALL LAKES CONVERGED AFTER   2  ITERATIONS
 ALL LAKES CONVERGED AFTER   2  ITERATIONS
 ALL LAKES CONVERGED AFTER   1  ITERATIONS
 ALL LAKES CONVERGED AFTER   1  ITERATIONS
    22 ITERATIONS FOR TIME STEP   9 IN STRESS PERIOD    1

 MAXIMUM HEAD CHANGE FOR EACH ITERATION:

    HEAD CHANGE   HEAD CHANGE   HEAD CHANGE   HEAD CHANGE   HEAD CHANGE
  LAYER,ROW,COL LAYER,ROW,COL LAYER,ROW,COL LAYER,ROW,COL LAYER,ROW,COL
 ----------------------------------------------------------------------
      1.720        0.9472        0.3898        0.5468E-01    0.6661E-01
  (  1,  4,  3) (  5, 11,  3) (  5,  8,  3) (  4, 10,  4) (  3, 10,  8)
     0.2627E-01    0.1902E-01    0.1188E-01    0.1502E-01    0.6115E-02
  (  2,  7,  7) (  5, 10,  8) (  3,  8, 10) (  3, 10,  8) (  3,  8, 10)
     0.7125E-02    0.3373E-02    0.3294E-02    0.1532E-02    0.1941E-02
  (  3,  8,  8) (  5,  9,  9) (  5, 10,  8) (  3,  8, 10) (  3, 10,  8)
     0.7613E-03    0.5416E-03    0.3400E-03    0.4277E-03    0.1807E-03
  (  2,  7,  7) (  5, 10,  8) (  3,  8, 10) (  3, 10,  8) (  3,  8, 10)
     0.2059E-03    0.9969E-04
  (  3,  8,  8) (  5,  9,  9)


 HEAD/DRAWDOWN PRINTOUT FLAG = 0     TOTAL BUDGET PRINTOUT FLAG = 0
 CELL-BY-CELL FLOW TERM FLAG = 1

 OUTPUT FLAGS FOR ALL LAYERS ARE THE SAME:
   HEAD    DRAWDOWN  HEAD  DRAWDOWN
 PRINTOUT  PRINTOUT  SAVE    SAVE
 ----------------------------------
     0         0       0       0


     0  LAKE CELLS ARE DRY.

 PERIOD     1     TIME STEP     9     TIME STEP LENGTH  1.8763E+01
 PERIOD TIME  1.5621E+02     TOTAL SIMULATION TIME  1.5621E+02


                 HYDROLOGIC BUDGET SUMMARIES FOR SIMULATED LAKES
     (ALL FLUID FLUXES ARE VOLUMES ADDED TO THE LAKE DURING PRESENT TIME STEP)
     -------------------------------------------------------------------------
 LAKE   STAGE     PRECIP       EVAP       RUNOFF
   1   113.02  1.3603E+06  1.2078E+06  0.0000E+00

            GROUND WATER            SURFACE WATER
 LAKE    INFLOW     OUTFLOW      INFLOW     OUTFLOW
   1  2.5824E+06  0.0000E+00  0.0000E+00  0.0000E+00

         WATER    CONNECTED LAKE   UPDATED     TIME-STEP          STAGE CHANGE
 LAKE     USE         INFLUX        VOLUME    SURFACE AREA   TIME STEP  CUMULATIVE
   1   0.0000E+00   0.0000E+00   6.0154E+07    6.2500E+06   4.3747E-01  3.0246E+00
 --------------------------------------------------------------------------------



            CUMULATIVE HYDROLOGIC BUDGET SUMMARIES FOR SIMULATED LAKES
     (ALL FLUID FLUXES ARE SUMS OF VOLUMES ADDED TO THE LAKE SINCE INITIAL TIME)
     ---------------------------------------------------------------------------
 LAKE       PRECIP       EVAP       RUNOFF
   1     1.1325E+07  1.0056E+07  0.0000E+00

            GROUND WATER            SURFACE WATER
 LAKE    INFLOW     OUTFLOW      INFLOW     OUTFLOW
   1  1.7637E+07  0.0000E+00  0.0000E+00  0.0000E+00

         WATER    CONNECTED LAKE
 LAKE     USE         INFLUX
   1   0.0000E+00   0.0000E+00
 --------------------------------------------------------------------------------

 
 SOLVING FOR HEAD 
 ALL LAKES CONVERGED AFTER   3  ITERATIONS
 ALL LAKES CONVERGED AFTER   3  ITERATIONS
 ALL LAKES CONVERGED AFTER   2  ITERATIONS
 ALL LAKES CONVERGED AFTER   3  ITERATIONS
 ALL LAKES CONVERGED AFTER   3  ITERATIONS
 ALL LAKES CONVERGED AFTER   2  ITERATIONS
 ALL LAKES CONVERGED AFTER   3  ITERATIONS
 ALL LAKES CONVERGED AFTER   3  ITERATIONS
 ALL LAKES CONVERGED AFTER   2  ITERATIONS
 ALL LAKES CONVERGED AFTER   3  ITERATIONS
 ALL LAKES CONVERGED AFTER   2  ITERATIONS
 ALL LAKES CONVERGED AFTER   2  ITERATIONS
 ALL LAKES CONVERGED AFTER   2  ITERATIONS
 ALL LAKES CONVERGED AFTER   2  ITERATIONS
 ALL LAKES CONVERGED AFTER   2  ITERATIONS
 ALL LAKES CONVERGED AFTER   2  ITERATIONS
 ALL LAKES CONVERGED AFTER   2  ITERATIONS
 ALL LAKES CONVERGED AFTER   2  ITERATIONS
 ALL LAKES CONVERGED AFTER   2  ITERATIONS
 ALL LAKES CONVERGED AFTER   2  ITERATIONS
 ALL LAKES CONVERGED AFTER   1  ITERATIONS
 ALL LAKES CONVERGED AFTER   2  ITERATIONS
 ALL LAKES CONVERGED AFTER   1  ITERATIONS
 ALL LAKES CONVERGED AFTER   1  ITERATIONS
    24 ITERATIONS FOR TIME STEP  10 IN STRESS PERIOD    1

 MAXIMUM HEAD CHANGE FOR EACH ITERATION:

    HEAD CHANGE   HEAD CHANGE   HEAD CHANGE   HEAD CHANGE   HEAD CHANGE
  LAYER,ROW,COL LAYER,ROW,COL LAYER,ROW,COL LAYER,ROW,COL LAYER,ROW,COL
 ----------------------------------------------------------------------
      1.591        0.8843        0.3716        0.5740E-01    0.7249E-01
  (  1, 14,  4) (  5, 11,  3) (  5,  8,  4) (  2,  7,  9) (  3, 10,  8)
     0.2882E-01    0.2097E-01    0.1319E-01    0.1670E-01    0.6868E-02
  (  2,  7,  7) (  5, 10,  8) (  3,  8, 10) (  3, 10,  8) (  3,  8, 10)
     0.8014E-02    0.3815E-02    0.3742E-02    0.1754E-02    0.2219E-02
  (  3,  8,  8) (  5,  9,  9) (  5, 10,  8) (  3,  8, 10) (  3, 10,  8)
     0.8753E-03    0.6333E-03    0.4016E-03    0.5129E-03    0.2263E-03
  (  2,  7,  7) (  5, 10,  8) (  3,  8, 10) (  3, 10,  8) (  2,  8, 11)
     0.2526E-03    0.1126E-03    0.1087E-03    0.6019E-04
  (  3, 10, 10) (  5,  9,  9) (  5, 10,  8) (  3,  8, 10)


 HEAD/DRAWDOWN PRINTOUT FLAG = 1     TOTAL BUDGET PRINTOUT FLAG = 1
 CELL-BY-CELL FLOW TERM FLAG = 1

 OUTPUT FLAGS FOR EACH LAYER:
          HEAD    DRAWDOWN  HEAD  DRAWDOWN
 LAYER  PRINTOUT  PRINTOUT  SAVE    SAVE
 -----------------------------------------
    1       0         0       0       0
    2       0         0       0       0
    3       0         0       0       0
    4       0         0       0       0
    5       1         0       0       0


     0  LAKE CELLS ARE DRY.

 PERIOD     1     TIME STEP    10     TIME STEP LENGTH  1.9138E+01
 PERIOD TIME  1.7535E+02     TOTAL SIMULATION TIME  1.7535E+02


                 HYDROLOGIC BUDGET SUMMARIES FOR SIMULATED LAKES
     (ALL FLUID FLUXES ARE VOLUMES ADDED TO THE LAKE DURING PRESENT TIME STEP)
     -------------------------------------------------------------------------
 LAKE   STAGE     PRECIP       EVAP       RUNOFF
   1   113.50  1.3875E+06  1.2320E+06  0.0000E+00

            GROUND WATER            SURFACE WATER
 LAKE    INFLOW     OUTFLOW      INFLOW     OUTFLOW
   1  2.7977E+06  0.0000E+00  0.0000E+00  0.0000E+00

         WATER    CONNECTED LAKE   UPDATED     TIME-STEP          STAGE CHANGE
 LAKE     USE         INFLUX        VOLUME    SURFACE AREA   TIME STEP  CUMULATIVE
   1   0.0000E+00   0.0000E+00   6.3107E+07    6.2500E+06   4.7248E-01  3.4971E+00
 --------------------------------------------------------------------------------



            CUMULATIVE HYDROLOGIC BUDGET SUMMARIES FOR SIMULATED LAKES
     (ALL FLUID FLUXES ARE SUMS OF VOLUMES ADDED TO THE LAKE SINCE INITIAL TIME)
     ---------------------------------------------------------------------------
 LAKE       PRECIP       EVAP       RUNOFF
   1     1.2713E+07  1.1288E+07  0.0000E+00

            GROUND WATER            SURFACE WATER
 LAKE    INFLOW     OUTFLOW      INFLOW     OUTFLOW
   1  2.0435E+07  0.0000E+00  0.0000E+00  0.0000E+00

         WATER    CONNECTED LAKE
 LAKE     USE         INFLUX
   1   0.0000E+00   0.0000E+00
 --------------------------------------------------------------------------------

1
              HEAD IN LAYER   5 AT END OF TIME STEP  10 IN STRESS PERIOD    1
  ---------------------------------------------------------------------------

          1      2      3      4      5      6      7      8      9     10
 .........................................................................
   1   160.0  158.9  157.3  155.8  154.2  152.7  151.5  150.8  150.0  149.2
   2   160.0  156.9  152.9  149.9  147.8  146.1  145.1  144.4  143.8  143.2
   3   160.0  154.5  147.0  141.7  138.6  136.9  136.1  135.7  135.3  134.9
   4   160.0  153.0  143.1  135.9  132.0  130.2  129.5  129.2  128.9  128.8
   5   160.0  152.3  141.1  132.9  128.5  126.4  125.4  125.0  124.8  124.9
   6   160.0  152.0  140.3  131.6  126.8  123.6  121.2  120.5  120.2  120.4
   7   160.0  151.9  140.0  131.1  125.9  121.3  114.0  113.7  113.7  113.7
   8   160.0  151.9  139.9  131.0  125.6  120.6  113.7  113.5  113.5  113.5
   9   160.0  151.9  139.9  130.9  125.5  120.4  113.7  113.5  113.5  113.5
  10   160.0  151.9  139.9  131.0  125.6  120.6  113.7  113.5  113.5  113.5
  11   160.0  151.9  140.0  131.1  125.9  121.3  114.0  113.7  113.7  113.7
  12   160.0  152.0  140.3  131.6  126.8  123.6  121.2  120.5  120.2  120.4
  13   160.0  152.3  141.1  132.9  128.5  126.4  125.4  125.0  124.8  124.9
  14   160.0  153.0  143.1  135.9  132.0  130.2  129.5  129.2  128.9  128.8
  15   160.0  154.5  147.0  141.7  138.6  136.9  136.1  135.7  135.3  134.9
  16   160.0  156.9  152.9  149.9  147.8  146.1  145.1  144.4  143.8  143.2
  17   160.0  158.9  157.3  155.8  154.2  152.7  151.5  150.8  150.0  149.2
1
              HEAD IN LAYER   5 AT END OF TIME STEP  10 IN STRESS PERIOD    1
  ---------------------------------------------------------------------------

         11     12     13     14     15     16     17
 ....................................................
   1   148.5  147.3  145.8  144.2  142.7  141.1  140.0
   2   142.5  141.6  140.5  139.6  139.1  139.3  140.0
   3   134.6  134.1  133.7  133.7  134.9  137.5  140.0
   4   128.7  128.8  129.1  130.2  132.4  136.5  140.0
   5   125.1  125.7  126.7  128.4  131.3  136.0  140.0
   6   121.0  123.2  125.3  127.5  130.9  135.9  140.0
   7   114.0  120.9  124.6  127.2  130.7  135.8  140.0
   8   113.7  120.3  124.3  127.1  130.7  135.8  140.0
   9   113.7  120.1  124.2  127.1  130.7  135.8  140.0
  10   113.7  120.3  124.3  127.1  130.7  135.8  140.0
  11   114.0  120.9  124.6  127.2  130.7  135.8  140.0
  12   121.0  123.2  125.3  127.5  130.9  135.9  140.0
  13   125.1  125.7  126.7  128.4  131.3  136.0  140.0
  14   128.7  128.8  129.1  130.2  132.4  136.5  140.0
  15   134.6  134.1  133.7  133.7  134.9  137.5  140.0
  16   142.5  141.6  140.5  139.6  139.1  139.3  140.0
  17   148.5  147.3  145.8  144.2  142.7  141.1  140.0
1
  VOLUMETRIC BUDGET FOR ENTIRE MODEL AT END OF TIME STEP 10 IN STRESS PERIOD   1
  ------------------------------------------------------------------------------

     CUMULATIVE VOLUMES      L**3       RATES FOR THIS TIME STEP      L**3/T
     ------------------                 ------------------------

           IN:                                      IN:
           ---                                      ---
             STORAGE =       31346.7051               STORAGE =           0.0000
       CONSTANT HEAD =   353147776.0000         CONSTANT HEAD =      949299.6875
                  ET =           0.0000                    ET =           0.0000
            RECHARGE =   305101920.0000              RECHARGE =     1740000.0000
     SPECIFIED FLOWS =           0.0000       SPECIFIED FLOWS =           0.0000
       LAKE  SEEPAGE =           0.0000         LAKE  SEEPAGE =           0.0000

            TOTAL IN =   658281024.0000              TOTAL IN =     2689299.7500

          OUT:                                     OUT:
          ----                                     ----
             STORAGE =   598831040.0000               STORAGE =     2042903.2500
       CONSTANT HEAD =           0.0000         CONSTANT HEAD =           0.0000
                  ET =    39012760.0000                    ET =      500197.1562
            RECHARGE =           0.0000              RECHARGE =           0.0000
     SPECIFIED FLOWS =           0.0000       SPECIFIED FLOWS =           0.0000
       LAKE  SEEPAGE =    20434574.0000         LAKE  SEEPAGE =      146184.3750

           TOTAL OUT =   658278400.0000             TOTAL OUT =     2689284.7500

            IN - OUT =        2624.0000              IN - OUT =          15.0000

 PERCENT DISCREPANCY =           0.00     PERCENT DISCREPANCY =           0.00






          TIME SUMMARY AT END OF TIME STEP  10 IN STRESS PERIOD    1
                    SECONDS     MINUTES      HOURS       DAYS        YEARS
                    -----------------------------------------------------------
   TIME STEP LENGTH 1.65351E+06  27559.      459.31      19.138     5.23967E-02
 STRESS PERIOD TIME 1.51499E+07 2.52498E+05  4208.3      175.35     0.48007    
         TOTAL TIME 1.51499E+07 2.52498E+05  4208.3      175.35     0.48007    
1
 
 SOLVING FOR HEAD 
 ALL LAKES CONVERGED AFTER   3  ITERATIONS
 ALL LAKES CONVERGED AFTER   2  ITERATIONS
 ALL LAKES CONVERGED AFTER   3  ITERATIONS
 ALL LAKES CONVERGED AFTER   3  ITERATIONS
 ALL LAKES CONVERGED AFTER   2  ITERATIONS
 ALL LAKES CONVERGED AFTER   2  ITERATIONS
 ALL LAKES CONVERGED AFTER   2  ITERATIONS
 ALL LAKES CONVERGED AFTER   2  ITERATIONS
 ALL LAKES CONVERGED AFTER   2  ITERATIONS
 ALL LAKES CONVERGED AFTER   3  ITERATIONS
 ALL LAKES CONVERGED AFTER   2  ITERATIONS
 ALL LAKES CONVERGED AFTER   2  ITERATIONS
 ALL LAKES CONVERGED AFTER   2  ITERATIONS
 ALL LAKES CONVERGED AFTER   2  ITERATIONS
 ALL LAKES CONVERGED AFTER   2  ITERATIONS
 ALL LAKES CONVERGED AFTER   2  ITERATIONS
 ALL LAKES CONVERGED AFTER   2  ITERATIONS
 ALL LAKES CONVERGED AFTER   2  ITERATIONS
 ALL LAKES CONVERGED AFTER   2  ITERATIONS
 ALL LAKES CONVERGED AFTER   2  ITERATIONS
 ALL LAKES CONVERGED AFTER   1  ITERATIONS
 ALL LAKES CONVERGED AFTER   2  ITERATIONS
 ALL LAKES CONVERGED AFTER   1  ITERATIONS
 ALL LAKES CONVERGED AFTER   1  ITERATIONS
    24 ITERATIONS FOR TIME STEP  11 IN STRESS PERIOD    1

 MAXIMUM HEAD CHANGE FOR EACH ITERATION:

    HEAD CHANGE   HEAD CHANGE   HEAD CHANGE   HEAD CHANGE   HEAD CHANGE
  LAYER,ROW,COL LAYER,ROW,COL LAYER,ROW,COL LAYER,ROW,COL LAYER,ROW,COL
 ----------------------------------------------------------------------
      1.487        0.8232        0.3717        0.6235E-01    0.7887E-01
  (  1,  4,  4) (  5, 11,  3) (  5,  8,  4) (  2,  7,  9) (  3, 10,  8)
     0.3160E-01    0.2312E-01    0.1464E-01    0.1857E-01    0.7691E-02
  (  2,  7,  7) (  5, 10,  8) (  3,  8, 10) (  3, 10,  8) (  3,  8, 10)
     0.8982E-02    0.4311E-02    0.4246E-02    0.2006E-02    0.2539E-02
  (  3, 10, 10) (  5,  9,  9) (  5, 10,  8) (  3,  8, 10) (  3, 10,  8)
     0.1007E-02    0.7378E-03    0.4639E-03    0.5897E-03    0.2466E-03
  (  2,  7,  7) (  5, 10,  8) (  3,  8, 10) (  3, 10,  8) (  2,  8, 11)
     0.2905E-03    0.1431E-03    0.1382E-03    0.7054E-04
  (  3,  8,  8) (  5,  9,  9) (  5, 10,  8) (  3,  8, 10)


 HEAD/DRAWDOWN PRINTOUT FLAG = 0     TOTAL BUDGET PRINTOUT FLAG = 0
 CELL-BY-CELL FLOW TERM FLAG = 1

 OUTPUT FLAGS FOR ALL LAYERS ARE THE SAME:
   HEAD    DRAWDOWN  HEAD  DRAWDOWN
 PRINTOUT  PRINTOUT  SAVE    SAVE
 ----------------------------------
     0         0       0       0


     0  LAKE CELLS ARE DRY.

 PERIOD     1     TIME STEP    11     TIME STEP LENGTH  1.9521E+01
 PERIOD TIME  1.9487E+02     TOTAL SIMULATION TIME  1.9487E+02


                 HYDROLOGIC BUDGET SUMMARIES FOR SIMULATED LAKES
     (ALL FLUID FLUXES ARE VOLUMES ADDED TO THE LAKE DURING PRESENT TIME STEP)
     -------------------------------------------------------------------------
 LAKE   STAGE     PRECIP       EVAP       RUNOFF
   1   114.01  1.4152E+06  1.2566E+06  0.0000E+00

            GROUND WATER            SURFACE WATER
 LAKE    INFLOW     OUTFLOW      INFLOW     OUTFLOW
   1  3.0324E+06  0.0000E+00  0.0000E+00  0.0000E+00

         WATER    CONNECTED LAKE   UPDATED     TIME-STEP          STAGE CHANGE
 LAKE     USE         INFLUX        VOLUME    SURFACE AREA   TIME STEP  CUMULATIVE
   1   0.0000E+00   0.0000E+00   6.6297E+07    6.2500E+06   5.1052E-01  4.0076E+00
 --------------------------------------------------------------------------------



            CUMULATIVE HYDROLOGIC BUDGET SUMMARIES FOR SIMULATED LAKES
     (ALL FLUID FLUXES ARE SUMS OF VOLUMES ADDED TO THE LAKE SINCE INITIAL TIME)
     ---------------------------------------------------------------------------
 LAKE       PRECIP       EVAP       RUNOFF
   1     1.4128E+07  1.2545E+07  0.0000E+00

            GROUND WATER            SURFACE WATER
 LAKE    INFLOW     OUTFLOW      INFLOW     OUTFLOW
   1  2.3467E+07  0.0000E+00  0.0000E+00  0.0000E+00

         WATER    CONNECTED LAKE
 LAKE     USE         INFLUX
   1   0.0000E+00   0.0000E+00
 --------------------------------------------------------------------------------

 
 SOLVING FOR HEAD 
 ALL LAKES CONVERGED AFTER   3  ITERATIONS
 ALL LAKES CONVERGED AFTER   3  ITERATIONS
 ALL LAKES CONVERGED AFTER   3  ITERATIONS
 ALL LAKES CONVERGED AFTER   3  ITERATIONS
 ALL LAKES CONVERGED AFTER   2  ITERATIONS
 ALL LAKES CONVERGED AFTER   3  ITERATIONS
 ALL LAKES CONVERGED AFTER   3  ITERATIONS
 ALL LAKES CONVERGED AFTER   3  ITERATIONS
 ALL LAKES CONVERGED AFTER   3  ITERATIONS
 ALL LAKES CONVERGED AFTER   3  ITERATIONS
 ALL LAKES CONVERGED AFTER   2  ITERATIONS
 ALL LAKES CONVERGED AFTER   2  ITERATIONS
 ALL LAKES CONVERGED AFTER   2  ITERATIONS
 ALL LAKES CONVERGED AFTER   2  ITERATIONS
 ALL LAKES CONVERGED AFTER   2  ITERATIONS
 ALL LAKES CONVERGED AFTER   2  ITERATIONS
 ALL LAKES CONVERGED AFTER   2  ITERATIONS
 ALL LAKES CONVERGED AFTER   2  ITERATIONS
 ALL LAKES CONVERGED AFTER   2  ITERATIONS
 ALL LAKES CONVERGED AFTER   2  ITERATIONS
 ALL LAKES CONVERGED AFTER   1  ITERATIONS
 ALL LAKES CONVERGED AFTER   2  ITERATIONS
 ALL LAKES CONVERGED AFTER   1  ITERATIONS
 ALL LAKES CONVERGED AFTER   1  ITERATIONS
    24 ITERATIONS FOR TIME STEP  12 IN STRESS PERIOD    1

 MAXIMUM HEAD CHANGE FOR EACH ITERATION:

    HEAD CHANGE   HEAD CHANGE   HEAD CHANGE   HEAD CHANGE   HEAD CHANGE
  LAYER,ROW,COL LAYER,ROW,COL LAYER,ROW,COL LAYER,ROW,COL LAYER,ROW,COL
 ----------------------------------------------------------------------
      1.356        0.7927        0.3619        0.6765E-01    0.8572E-01
  (  1,  4,  4) (  5, 11,  4) (  5,  8,  4) (  2,  7,  9) (  3, 10,  8)
     0.3461E-01    0.2546E-01    0.1622E-01    0.2062E-01    0.8605E-02
  (  2,  7,  7) (  5, 10,  8) (  3,  8, 10) (  3, 10,  8) (  3,  8, 10)
     0.1007E-01    0.4853E-02    0.4804E-02    0.2278E-02    0.2896E-02
  (  3,  8,  8) (  5,  9,  9) (  5, 10,  8) (  3,  8, 10) (  3, 10,  8)
     0.1168E-02    0.8539E-03    0.5363E-03    0.6863E-03    0.2908E-03
  (  2,  7,  7) (  5, 10,  8) (  3,  8, 10) (  3, 10,  8) (  3,  8, 10)
     0.3368E-03    0.1591E-03    0.1616E-03    0.7787E-04
  (  3,  8,  8) (  5,  9, 10) (  5, 10,  8) (  2,  7, 11)


 HEAD/DRAWDOWN PRINTOUT FLAG = 0     TOTAL BUDGET PRINTOUT FLAG = 0
 CELL-BY-CELL FLOW TERM FLAG = 1

 OUTPUT FLAGS FOR ALL LAYERS ARE THE SAME:
   HEAD    DRAWDOWN  HEAD  DRAWDOWN
 PRINTOUT  PRINTOUT  SAVE    SAVE
 ----------------------------------
     0         0       0       0


     0  LAKE CELLS ARE DRY.

 PERIOD     1     TIME STEP    12     TIME STEP LENGTH  1.9911E+01
 PERIOD TIME  2.1478E+02     TOTAL SIMULATION TIME  2.1478E+02


                 HYDROLOGIC BUDGET SUMMARIES FOR SIMULATED LAKES
     (ALL FLUID FLUXES ARE VOLUMES ADDED TO THE LAKE DURING PRESENT TIME STEP)
     -------------------------------------------------------------------------
 LAKE   STAGE     PRECIP       EVAP       RUNOFF
   1   114.56  1.4436E+06  1.2818E+06  0.0000E+00

            GROUND WATER            SURFACE WATER
 LAKE    INFLOW     OUTFLOW      INFLOW     OUTFLOW
   1  3.2862E+06  0.0000E+00  0.0000E+00  0.0000E+00

         WATER    CONNECTED LAKE   UPDATED     TIME-STEP          STAGE CHANGE
 LAKE     USE         INFLUX        VOLUME    SURFACE AREA   TIME STEP  CUMULATIVE
   1   0.0000E+00   0.0000E+00   6.9745E+07    6.2500E+06   5.5161E-01  4.5592E+00
 --------------------------------------------------------------------------------



            CUMULATIVE HYDROLOGIC BUDGET SUMMARIES FOR SIMULATED LAKES
     (ALL FLUID FLUXES ARE SUMS OF VOLUMES ADDED TO THE LAKE SINCE INITIAL TIME)
     ---------------------------------------------------------------------------
 LAKE       PRECIP       EVAP       RUNOFF
   1     1.5571E+07  1.3826E+07  0.0000E+00

            GROUND WATER            SURFACE WATER
 LAKE    INFLOW     OUTFLOW      INFLOW     OUTFLOW
   1  2.6753E+07  0.0000E+00  0.0000E+00  0.0000E+00

         WATER    CONNECTED LAKE
 LAKE     USE         INFLUX
   1   0.0000E+00   0.0000E+00
 --------------------------------------------------------------------------------

 
 SOLVING FOR HEAD 
 ALL LAKES CONVERGED AFTER   3  ITERATIONS
 ALL LAKES CONVERGED AFTER   3  ITERATIONS
 ALL LAKES CONVERGED AFTER   3  ITERATIONS
 ALL LAKES CONVERGED AFTER   3  ITERATIONS
 ALL LAKES CONVERGED AFTER   3  ITERATIONS
 ALL LAKES CONVERGED AFTER   3  ITERATIONS
 ALL LAKES CONVERGED AFTER   3  ITERATIONS
 ALL LAKES CONVERGED AFTER   3  ITERATIONS
 ALL LAKES CONVERGED AFTER   2  ITERATIONS
 ALL LAKES CONVERGED AFTER   3  ITERATIONS
 ALL LAKES CONVERGED AFTER   2  ITERATIONS
 ALL LAKES CONVERGED AFTER   3  ITERATIONS
 ALL LAKES CONVERGED AFTER   2  ITERATIONS
 ALL LAKES CONVERGED AFTER   2  ITERATIONS
 ALL LAKES CONVERGED AFTER   2  ITERATIONS
 ALL LAKES CONVERGED AFTER   2  ITERATIONS
 ALL LAKES CONVERGED AFTER   2  ITERATIONS
 ALL LAKES CONVERGED AFTER   2  ITERATIONS
 ALL LAKES CONVERGED AFTER   2  ITERATIONS
 ALL LAKES CONVERGED AFTER   2  ITERATIONS
 ALL LAKES CONVERGED AFTER   1  ITERATIONS
 ALL LAKES CONVERGED AFTER   2  ITERATIONS
 ALL LAKES CONVERGED AFTER   2  ITERATIONS
 ALL LAKES CONVERGED AFTER   1  ITERATIONS
    24 ITERATIONS FOR TIME STEP  13 IN STRESS PERIOD    1

 MAXIMUM HEAD CHANGE FOR EACH ITERATION:

    HEAD CHANGE   HEAD CHANGE   HEAD CHANGE   HEAD CHANGE   HEAD CHANGE
  LAYER,ROW,COL LAYER,ROW,COL LAYER,ROW,COL LAYER,ROW,COL LAYER,ROW,COL
 ----------------------------------------------------------------------
      1.253        0.7721        0.3507        0.7326E-01    0.9300E-01
  (  1, 13,  4) (  5, 11,  4) (  5,  8,  4) (  2,  7,  9) (  3, 10,  8)
     0.3783E-01    0.2796E-01    0.1794E-01    0.2284E-01    0.9599E-02
  (  2,  7,  7) (  5, 10,  8) (  3,  8, 10) (  3, 10,  8) (  3,  8, 10)
     0.1125E-01    0.5459E-02    0.5422E-02    0.2591E-02    0.3297E-02
  (  3,  8,  8) (  5,  9,  9) (  5, 10,  8) (  3,  8, 10) (  3, 10,  8)
     0.1337E-02    0.9819E-03    0.6378E-03    0.8072E-03    0.3451E-03
  (  2,  7,  7) (  5, 10,  8) (  3,  8, 10) (  3, 10,  8) (  2,  8, 11)
     0.3936E-03    0.1887E-03    0.1917E-03    0.9068E-04
  (  3,  8,  8) (  5,  9,  9) (  5, 10,  8) (  3,  8, 10)


 HEAD/DRAWDOWN PRINTOUT FLAG = 0     TOTAL BUDGET PRINTOUT FLAG = 0
 CELL-BY-CELL FLOW TERM FLAG = 1

 OUTPUT FLAGS FOR ALL LAYERS ARE THE SAME:
   HEAD    DRAWDOWN  HEAD  DRAWDOWN
 PRINTOUT  PRINTOUT  SAVE    SAVE
 ----------------------------------
     0         0       0       0


     0  LAKE CELLS ARE DRY.

 PERIOD     1     TIME STEP    13     TIME STEP LENGTH  2.0309E+01
 PERIOD TIME  2.3509E+02     TOTAL SIMULATION TIME  2.3509E+02


                 HYDROLOGIC BUDGET SUMMARIES FOR SIMULATED LAKES
     (ALL FLUID FLUXES ARE VOLUMES ADDED TO THE LAKE DURING PRESENT TIME STEP)
     -------------------------------------------------------------------------
 LAKE   STAGE     PRECIP       EVAP       RUNOFF
   1   115.15  1.4724E+06  1.3074E+06  0.0000E+00

            GROUND WATER            SURFACE WATER
 LAKE    INFLOW     OUTFLOW      INFLOW     OUTFLOW
   1  3.5577E+06  0.0000E+00  0.0000E+00  0.0000E+00

         WATER    CONNECTED LAKE   UPDATED     TIME-STEP          STAGE CHANGE
 LAKE     USE         INFLUX        VOLUME    SURFACE AREA   TIME STEP  CUMULATIVE
   1   0.0000E+00   0.0000E+00   7.3467E+07    6.2500E+06   5.9557E-01  5.1548E+00
 --------------------------------------------------------------------------------



            CUMULATIVE HYDROLOGIC BUDGET SUMMARIES FOR SIMULATED LAKES
     (ALL FLUID FLUXES ARE SUMS OF VOLUMES ADDED TO THE LAKE SINCE INITIAL TIME)
     ---------------------------------------------------------------------------
 LAKE       PRECIP       EVAP       RUNOFF
   1     1.7044E+07  1.5134E+07  0.0000E+00

            GROUND WATER            SURFACE WATER
 LAKE    INFLOW     OUTFLOW      INFLOW     OUTFLOW
   1  3.0311E+07  0.0000E+00  0.0000E+00  0.0000E+00

         WATER    CONNECTED LAKE
 LAKE     USE         INFLUX
   1   0.0000E+00   0.0000E+00
 --------------------------------------------------------------------------------

 
 SOLVING FOR HEAD 
 ALL LAKES CONVERGED AFTER   3  ITERATIONS
 ALL LAKES CONVERGED AFTER   3  ITERATIONS
 ALL LAKES CONVERGED AFTER   3  ITERATIONS
 ALL LAKES CONVERGED AFTER   3  ITERATIONS
 ALL LAKES CONVERGED AFTER   3  ITERATIONS
 ALL LAKES CONVERGED AFTER   3  ITERATIONS
 ALL LAKES CONVERGED AFTER   2  ITERATIONS
 ALL LAKES CONVERGED AFTER   2  ITERATIONS
 ALL LAKES CONVERGED AFTER   3  ITERATIONS
 ALL LAKES CONVERGED AFTER   3  ITERATIONS
 ALL LAKES CONVERGED AFTER   2  ITERATIONS
 ALL LAKES CONVERGED AFTER   2  ITERATIONS
 ALL LAKES CONVERGED AFTER   2  ITERATIONS
 ALL LAKES CONVERGED AFTER   2  ITERATIONS
 ALL LAKES CONVERGED AFTER   2  ITERATIONS
 ALL LAKES CONVERGED AFTER   2  ITERATIONS
 ALL LAKES CONVERGED AFTER   2  ITERATIONS
 ALL LAKES CONVERGED AFTER   2  ITERATIONS
 ALL LAKES CONVERGED AFTER   2  ITERATIONS
 ALL LAKES CONVERGED AFTER   2  ITERATIONS
 ALL LAKES CONVERGED AFTER   2  ITERATIONS
 ALL LAKES CONVERGED AFTER   2  ITERATIONS
 ALL LAKES CONVERGED AFTER   2  ITERATIONS
 ALL LAKES CONVERGED AFTER   2  ITERATIONS
 ALL LAKES CONVERGED AFTER   1  ITERATIONS
 ALL LAKES CONVERGED AFTER   1  ITERATIONS
    26 ITERATIONS FOR TIME STEP  14 IN STRESS PERIOD    1

 MAXIMUM HEAD CHANGE FOR EACH ITERATION:

    HEAD CHANGE   HEAD CHANGE   HEAD CHANGE   HEAD CHANGE   HEAD CHANGE
  LAYER,ROW,COL LAYER,ROW,COL LAYER,ROW,COL LAYER,ROW,COL LAYER,ROW,COL
 ----------------------------------------------------------------------
      1.147        0.7455        0.3382        0.7910E-01    0.1006    
  (  1, 13,  4) (  5, 11,  4) (  5,  8,  4) (  2,  7,  9) (  3, 10,  8)
     0.4122E-01    0.3062E-01    0.1977E-01    0.2523E-01    0.1069E-01
  (  2,  7,  7) (  5, 10,  8) (  3,  8, 10) (  3, 10,  8) (  3,  8, 10)
     0.1253E-01    0.6119E-02    0.6101E-02    0.2944E-02    0.3753E-02
  (  3,  8,  8) (  5,  9,  9) (  5, 10,  8) (  3,  8, 10) (  3, 10,  8)
     0.1527E-02    0.1123E-02    0.7400E-03    0.9404E-03    0.3914E-03
  (  2,  7,  7) (  5, 10,  8) (  3,  8, 10) (  3, 10,  8) (  3,  8, 10)
     0.4610E-03    0.2220E-03    0.2208E-03    0.1106E-03    0.1481E-03
  (  2,  7,  7) (  5,  9,  9) (  5, 10,  8) (  3,  8, 10) (  3, 10,  8)
     0.5660E-04
  (  2,  7,  7)


 HEAD/DRAWDOWN PRINTOUT FLAG = 0     TOTAL BUDGET PRINTOUT FLAG = 0
 CELL-BY-CELL FLOW TERM FLAG = 1

 OUTPUT FLAGS FOR ALL LAYERS ARE THE SAME:
   HEAD    DRAWDOWN  HEAD  DRAWDOWN
 PRINTOUT  PRINTOUT  SAVE    SAVE
 ----------------------------------
     0         0       0       0


     0  LAKE CELLS ARE DRY.

 PERIOD     1     TIME STEP    14     TIME STEP LENGTH  2.0715E+01
 PERIOD TIME  2.5580E+02     TOTAL SIMULATION TIME  2.5580E+02


                 HYDROLOGIC BUDGET SUMMARIES FOR SIMULATED LAKES
     (ALL FLUID FLUXES ARE VOLUMES ADDED TO THE LAKE DURING PRESENT TIME STEP)
     -------------------------------------------------------------------------
 LAKE   STAGE     PRECIP       EVAP       RUNOFF
   1   115.80  1.5019E+06  1.3336E+06  0.0000E+00

            GROUND WATER            SURFACE WATER
 LAKE    INFLOW     OUTFLOW      INFLOW     OUTFLOW
   1  3.8448E+06  0.0000E+00  0.0000E+00  0.0000E+00

         WATER    CONNECTED LAKE   UPDATED     TIME-STEP          STAGE CHANGE
 LAKE     USE         INFLUX        VOLUME    SURFACE AREA   TIME STEP  CUMULATIVE
   1   0.0000E+00   0.0000E+00   7.7480E+07    6.2500E+06   6.4206E-01  5.7968E+00
 --------------------------------------------------------------------------------



            CUMULATIVE HYDROLOGIC BUDGET SUMMARIES FOR SIMULATED LAKES
     (ALL FLUID FLUXES ARE SUMS OF VOLUMES ADDED TO THE LAKE SINCE INITIAL TIME)
     ---------------------------------------------------------------------------
 LAKE       PRECIP       EVAP       RUNOFF
   1     1.8546E+07  1.6467E+07  0.0000E+00

            GROUND WATER            SURFACE WATER
 LAKE    INFLOW     OUTFLOW      INFLOW     OUTFLOW
   1  3.4156E+07  0.0000E+00  0.0000E+00  0.0000E+00

         WATER    CONNECTED LAKE
 LAKE     USE         INFLUX
   1   0.0000E+00   0.0000E+00
 --------------------------------------------------------------------------------

 
 SOLVING FOR HEAD 
 ALL LAKES CONVERGED AFTER   2  ITERATIONS
 ALL LAKES CONVERGED AFTER   3  ITERATIONS
 ALL LAKES CONVERGED AFTER   3  ITERATIONS
 ALL LAKES CONVERGED AFTER   3  ITERATIONS
 ALL LAKES CONVERGED AFTER   3  ITERATIONS
 ALL LAKES CONVERGED AFTER   2  ITERATIONS
 ALL LAKES CONVERGED AFTER   3  ITERATIONS
 ALL LAKES CONVERGED AFTER   3  ITERATIONS
 ALL LAKES CONVERGED AFTER   3  ITERATIONS
 ALL LAKES CONVERGED AFTER   3  ITERATIONS
 ALL LAKES CONVERGED AFTER   3  ITERATIONS
 ALL LAKES CONVERGED AFTER   3  ITERATIONS
 ALL LAKES CONVERGED AFTER   2  ITERATIONS
 ALL LAKES CONVERGED AFTER   2  ITERATIONS
 ALL LAKES CONVERGED AFTER   2  ITERATIONS
 ALL LAKES CONVERGED AFTER   2  ITERATIONS
 ALL LAKES CONVERGED AFTER   2  ITERATIONS
 ALL LAKES CONVERGED AFTER   2  ITERATIONS
 ALL LAKES CONVERGED AFTER   2  ITERATIONS
 ALL LAKES CONVERGED AFTER   2  ITERATIONS
 ALL LAKES CONVERGED AFTER   2  ITERATIONS
 ALL LAKES CONVERGED AFTER   2  ITERATIONS
 ALL LAKES CONVERGED AFTER   2  ITERATIONS
 ALL LAKES CONVERGED AFTER   2  ITERATIONS
 ALL LAKES CONVERGED AFTER   1  ITERATIONS
 ALL LAKES CONVERGED AFTER   1  ITERATIONS
    26 ITERATIONS FOR TIME STEP  15 IN STRESS PERIOD    1

 MAXIMUM HEAD CHANGE FOR EACH ITERATION:

    HEAD CHANGE   HEAD CHANGE   HEAD CHANGE   HEAD CHANGE   HEAD CHANGE
  LAYER,ROW,COL LAYER,ROW,COL LAYER,ROW,COL LAYER,ROW,COL LAYER,ROW,COL
 ----------------------------------------------------------------------
      1.077        0.7134        0.3249        0.8505E-01    0.1084    
  (  1, 13,  5) (  5, 11,  4) (  5,  8,  4) (  2,  7,  9) (  3, 10,  8)
     0.4475E-01    0.3339E-01    0.2169E-01    0.2773E-01    0.1183E-01
  (  2,  7,  7) (  5, 10,  8) (  3,  8, 10) (  3, 10,  8) (  3,  8, 10)
     0.1390E-01    0.6833E-02    0.6832E-02    0.3317E-02    0.4232E-02
  (  3,  8,  8) (  5,  9,  9) (  5, 10,  8) (  3,  8, 10) (  3, 10,  8)
     0.1736E-02    0.1294E-02    0.8440E-03    0.1075E-02    0.4541E-03
  (  2,  7,  7) (  5, 10,  8) (  3,  8, 10) (  3, 10,  8) (  2,  8, 11)
     0.5339E-03    0.2654E-03    0.2645E-03    0.1375E-03    0.1692E-03
  (  3,  8,  8) (  5,  9,  9) (  5, 10,  8) (  2,  9, 11) (  3, 10,  8)
     0.7490E-04
  (  2,  7,  7)


 HEAD/DRAWDOWN PRINTOUT FLAG = 0     TOTAL BUDGET PRINTOUT FLAG = 0
 CELL-BY-CELL FLOW TERM FLAG = 1

 OUTPUT FLAGS FOR ALL LAYERS ARE THE SAME:
   HEAD    DRAWDOWN  HEAD  DRAWDOWN
 PRINTOUT  PRINTOUT  SAVE    SAVE
 ----------------------------------
     0         0       0       0


     0  LAKE CELLS ARE DRY.

 PERIOD     1     TIME STEP    15     TIME STEP LENGTH  2.1130E+01
 PERIOD TIME  2.7693E+02     TOTAL SIMULATION TIME  2.7693E+02


                 HYDROLOGIC BUDGET SUMMARIES FOR SIMULATED LAKES
     (ALL FLUID FLUXES ARE VOLUMES ADDED TO THE LAKE DURING PRESENT TIME STEP)
     -------------------------------------------------------------------------
 LAKE   STAGE     PRECIP       EVAP       RUNOFF
   1   116.49  1.5319E+06  1.3602E+06  0.0000E+00

            GROUND WATER            SURFACE WATER
 LAKE    INFLOW     OUTFLOW      INFLOW     OUTFLOW
   1  4.1423E+06  0.0000E+00  0.0000E+00  0.0000E+00

         WATER    CONNECTED LAKE   UPDATED     TIME-STEP          STAGE CHANGE
 LAKE     USE         INFLUX        VOLUME    SURFACE AREA   TIME STEP  CUMULATIVE
   1   0.0000E+00   0.0000E+00   8.1794E+07    6.2500E+06   6.9014E-01  6.4870E+00
 --------------------------------------------------------------------------------



            CUMULATIVE HYDROLOGIC BUDGET SUMMARIES FOR SIMULATED LAKES
     (ALL FLUID FLUXES ARE SUMS OF VOLUMES ADDED TO THE LAKE SINCE INITIAL TIME)
     ---------------------------------------------------------------------------
 LAKE       PRECIP       EVAP       RUNOFF
   1     2.0078E+07  1.7828E+07  0.0000E+00

            GROUND WATER            SURFACE WATER
 LAKE    INFLOW     OUTFLOW      INFLOW     OUTFLOW
   1  3.8298E+07  0.0000E+00  0.0000E+00  0.0000E+00

         WATER    CONNECTED LAKE
 LAKE     USE         INFLUX
   1   0.0000E+00   0.0000E+00
 --------------------------------------------------------------------------------

 
 SOLVING FOR HEAD 
 ALL LAKES CONVERGED AFTER   3  ITERATIONS
 ALL LAKES CONVERGED AFTER   3  ITERATIONS
 ALL LAKES CONVERGED AFTER   3  ITERATIONS
 ALL LAKES CONVERGED AFTER   3  ITERATIONS
 ALL LAKES CONVERGED AFTER   3  ITERATIONS
 ALL LAKES CONVERGED AFTER   3  ITERATIONS
 ALL LAKES CONVERGED AFTER   3  ITERATIONS
 ALL LAKES CONVERGED AFTER   3  ITERATIONS
 ALL LAKES CONVERGED AFTER   2  ITERATIONS
 ALL LAKES CONVERGED AFTER   2  ITERATIONS
 ALL LAKES CONVERGED AFTER   2  ITERATIONS
 ALL LAKES CONVERGED AFTER   3  ITERATIONS
 ALL LAKES CONVERGED AFTER   3  ITERATIONS
 ALL LAKES CONVERGED AFTER   2  ITERATIONS
 ALL LAKES CONVERGED AFTER   2  ITERATIONS
 ALL LAKES CONVERGED AFTER   2  ITERATIONS
 ALL LAKES CONVERGED AFTER   2  ITERATIONS
 ALL LAKES CONVERGED AFTER   2  ITERATIONS
 ALL LAKES CONVERGED AFTER   2  ITERATIONS
 ALL LAKES CONVERGED AFTER   2  ITERATIONS
 ALL LAKES CONVERGED AFTER   2  ITERATIONS
 ALL LAKES CONVERGED AFTER   2  ITERATIONS
 ALL LAKES CONVERGED AFTER   2  ITERATIONS
 ALL LAKES CONVERGED AFTER   2  ITERATIONS
 ALL LAKES CONVERGED AFTER   1  ITERATIONS
 ALL LAKES CONVERGED AFTER   1  ITERATIONS
    26 ITERATIONS FOR TIME STEP  16 IN STRESS PERIOD    1

 MAXIMUM HEAD CHANGE FOR EACH ITERATION:

    HEAD CHANGE   HEAD CHANGE   HEAD CHANGE   HEAD CHANGE   HEAD CHANGE
  LAYER,ROW,COL LAYER,ROW,COL LAYER,ROW,COL LAYER,ROW,COL LAYER,ROW,COL
 ----------------------------------------------------------------------
      1.000        0.6418        0.3084        0.9098E-01    0.1163    
  (  1, 13,  5) (  5, 11,  4) (  5,  9,  5) (  2,  7,  9) (  3, 10,  8)
     0.4831E-01    0.3621E-01    0.2368E-01    0.3032E-01    0.1303E-01
  (  2,  7,  7) (  5, 10,  8) (  3,  8, 10) (  3, 10,  8) (  3,  8, 10)
     0.1533E-01    0.7571E-02    0.7605E-02    0.3730E-02    0.4759E-02
  (  3,  8,  8) (  5,  9,  9) (  5, 10,  8) (  3,  8, 10) (  3, 10,  8)
     0.1964E-02    0.1468E-02    0.9668E-03    0.1236E-02    0.5330E-03
  (  2,  7,  7) (  5, 10,  8) (  3,  8, 10) (  3, 10,  8) (  2,  8, 11)
     0.6273E-03    0.3099E-03    0.3043E-03    0.1511E-03    0.1978E-03
  (  3,  8,  8) (  5,  9,  9) (  5, 10,  8) (  3,  8, 10) (  3, 10,  8)
     0.8456E-04
  (  2,  7,  7)


 HEAD/DRAWDOWN PRINTOUT FLAG = 0     TOTAL BUDGET PRINTOUT FLAG = 0
 CELL-BY-CELL FLOW TERM FLAG = 1

 OUTPUT FLAGS FOR ALL LAYERS ARE THE SAME:
   HEAD    DRAWDOWN  HEAD  DRAWDOWN
 PRINTOUT  PRINTOUT  SAVE    SAVE
 ----------------------------------
     0         0       0       0


     0  LAKE CELLS ARE DRY.

 PERIOD     1     TIME STEP    16     TIME STEP LENGTH  2.1552E+01
 PERIOD TIME  2.9848E+02     TOTAL SIMULATION TIME  2.9848E+02


                 HYDROLOGIC BUDGET SUMMARIES FOR SIMULATED LAKES
     (ALL FLUID FLUXES ARE VOLUMES ADDED TO THE LAKE DURING PRESENT TIME STEP)
     -------------------------------------------------------------------------
 LAKE   STAGE     PRECIP       EVAP       RUNOFF
   1   117.23  1.5625E+06  1.3874E+06  0.0000E+00

            GROUND WATER            SURFACE WATER
 LAKE    INFLOW     OUTFLOW      INFLOW     OUTFLOW
   1  4.4446E+06  0.0000E+00  0.0000E+00  0.0000E+00

         WATER    CONNECTED LAKE   UPDATED     TIME-STEP          STAGE CHANGE
 LAKE     USE         INFLUX        VOLUME    SURFACE AREA   TIME STEP  CUMULATIVE
   1   0.0000E+00   0.0000E+00   8.6412E+07    6.2500E+06   7.3901E-01  7.2260E+00
 --------------------------------------------------------------------------------



            CUMULATIVE HYDROLOGIC BUDGET SUMMARIES FOR SIMULATED LAKES
     (ALL FLUID FLUXES ARE SUMS OF VOLUMES ADDED TO THE LAKE SINCE INITIAL TIME)
     ---------------------------------------------------------------------------
 LAKE       PRECIP       EVAP       RUNOFF
   1     2.1640E+07  1.9215E+07  0.0000E+00

            GROUND WATER            SURFACE WATER
 LAKE    INFLOW     OUTFLOW      INFLOW     OUTFLOW
   1  4.2743E+07  0.0000E+00  0.0000E+00  0.0000E+00

         WATER    CONNECTED LAKE
 LAKE     USE         INFLUX
   1   0.0000E+00   0.0000E+00
 --------------------------------------------------------------------------------

 
 SOLVING FOR HEAD 
 ALL LAKES CONVERGED AFTER   3  ITERATIONS
 ALL LAKES CONVERGED AFTER   3  ITERATIONS
 ALL LAKES CONVERGED AFTER   3  ITERATIONS
 ALL LAKES CONVERGED AFTER   3  ITERATIONS
 ALL LAKES CONVERGED AFTER   3  ITERATIONS
 ALL LAKES CONVERGED AFTER   3  ITERATIONS
 ALL LAKES CONVERGED AFTER   3  ITERATIONS
 ALL LAKES CONVERGED AFTER   3  ITERATIONS
 ALL LAKES CONVERGED AFTER   3  ITERATIONS
 ALL LAKES CONVERGED AFTER   3  ITERATIONS
 ALL LAKES CONVERGED AFTER   3  ITERATIONS
 ALL LAKES CONVERGED AFTER   3  ITERATIONS
 ALL LAKES CONVERGED AFTER   2  ITERATIONS
 ALL LAKES CONVERGED AFTER   3  ITERATIONS
 ALL LAKES CONVERGED AFTER   2  ITERATIONS
 ALL LAKES CONVERGED AFTER   2  ITERATIONS
 ALL LAKES CONVERGED AFTER   2  ITERATIONS
 ALL LAKES CONVERGED AFTER   2  ITERATIONS
 ALL LAKES CONVERGED AFTER   2  ITERATIONS
 ALL LAKES CONVERGED AFTER   2  ITERATIONS
 ALL LAKES CONVERGED AFTER   2  ITERATIONS
 ALL LAKES CONVERGED AFTER   2  ITERATIONS
 ALL LAKES CONVERGED AFTER   2  ITERATIONS
 ALL LAKES CONVERGED AFTER   2  ITERATIONS
 ALL LAKES CONVERGED AFTER   1  ITERATIONS
 ALL LAKES CONVERGED AFTER   2  ITERATIONS
    26 ITERATIONS FOR TIME STEP  17 IN STRESS PERIOD    1

 MAXIMUM HEAD CHANGE FOR EACH ITERATION:

    HEAD CHANGE   HEAD CHANGE   HEAD CHANGE   HEAD CHANGE   HEAD CHANGE
  LAYER,ROW,COL LAYER,ROW,COL LAYER,ROW,COL LAYER,ROW,COL LAYER,ROW,COL
 ----------------------------------------------------------------------
     0.8828        0.6202        0.2986        0.9672E-01    0.1239    
  (  1, 12,  5) (  5, 11,  5) (  5,  8,  5) (  2,  7,  9) (  3, 10,  8)
     0.5184E-01    0.3904E-01    0.2566E-01    0.3294E-01    0.1427E-01
  (  2,  7,  7) (  5, 10,  8) (  3,  8, 10) (  3, 10,  8) (  3,  8, 10)
     0.1679E-01    0.8349E-02    0.8410E-02    0.4153E-02    0.5308E-02
  (  3,  8,  8) (  5,  9,  9) (  5, 10,  8) (  3,  8, 10) (  3, 10,  8)
     0.2218E-02    0.1664E-02    0.1083E-02    0.1399E-02    0.6118E-03
  (  2,  7,  7) (  5, 10,  8) (  2,  9, 11) (  3, 10,  8) (  2,  8, 11)
     0.7124E-03    0.3544E-03    0.3634E-03    0.1814E-03    0.2291E-03
  (  3,  8,  8) (  5,  9,  9) (  5, 10,  8) (  3,  8, 10) (  3, 10,  8)
     0.9434E-04
  (  2,  7,  7)


 HEAD/DRAWDOWN PRINTOUT FLAG = 0     TOTAL BUDGET PRINTOUT FLAG = 0
 CELL-BY-CELL FLOW TERM FLAG = 1

 OUTPUT FLAGS FOR ALL LAYERS ARE THE SAME:
   HEAD    DRAWDOWN  HEAD  DRAWDOWN
 PRINTOUT  PRINTOUT  SAVE    SAVE
 ----------------------------------
     0         0       0       0


     0  LAKE CELLS ARE DRY.

 PERIOD     1     TIME STEP    17     TIME STEP LENGTH  2.1983E+01
 PERIOD TIME  3.2047E+02     TOTAL SIMULATION TIME  3.2047E+02


                 HYDROLOGIC BUDGET SUMMARIES FOR SIMULATED LAKES
     (ALL FLUID FLUXES ARE VOLUMES ADDED TO THE LAKE DURING PRESENT TIME STEP)
     -------------------------------------------------------------------------
 LAKE   STAGE     PRECIP       EVAP       RUNOFF
   1   118.01  1.5938E+06  1.4152E+06  0.0000E+00

            GROUND WATER            SURFACE WATER
 LAKE    INFLOW     OUTFLOW      INFLOW     OUTFLOW
   1  4.7442E+06  0.0000E+00  0.0000E+00  0.0000E+00

         WATER    CONNECTED LAKE   UPDATED     TIME-STEP          STAGE CHANGE
 LAKE     USE         INFLUX        VOLUME    SURFACE AREA   TIME STEP  CUMULATIVE
   1   0.0000E+00   0.0000E+00   9.1334E+07    6.2500E+06   7.8749E-01  8.0135E+00
 --------------------------------------------------------------------------------



            CUMULATIVE HYDROLOGIC BUDGET SUMMARIES FOR SIMULATED LAKES
     (ALL FLUID FLUXES ARE SUMS OF VOLUMES ADDED TO THE LAKE SINCE INITIAL TIME)
     ---------------------------------------------------------------------------
 LAKE       PRECIP       EVAP       RUNOFF
   1     2.3234E+07  2.0630E+07  0.0000E+00

            GROUND WATER            SURFACE WATER
 LAKE    INFLOW     OUTFLOW      INFLOW     OUTFLOW
   1  4.7487E+07  0.0000E+00  0.0000E+00  0.0000E+00

         WATER    CONNECTED LAKE
 LAKE     USE         INFLUX
   1   0.0000E+00   0.0000E+00
 --------------------------------------------------------------------------------

 
 SOLVING FOR HEAD 
 ALL LAKES CONVERGED AFTER   3  ITERATIONS
 ALL LAKES CONVERGED AFTER   3  ITERATIONS
 ALL LAKES CONVERGED AFTER   3  ITERATIONS
 ALL LAKES CONVERGED AFTER   3  ITERATIONS
 ALL LAKES CONVERGED AFTER   3  ITERATIONS
 ALL LAKES CONVERGED AFTER   3  ITERATIONS
 ALL LAKES CONVERGED AFTER   3  ITERATIONS
 ALL LAKES CONVERGED AFTER   3  ITERATIONS
 ALL LAKES CONVERGED AFTER   3  ITERATIONS
 ALL LAKES CONVERGED AFTER   3  ITERATIONS
 ALL LAKES CONVERGED AFTER   3  ITERATIONS
 ALL LAKES CONVERGED AFTER   3  ITERATIONS
 ALL LAKES CONVERGED AFTER   3  ITERATIONS
 ALL LAKES CONVERGED AFTER   3  ITERATIONS
 ALL LAKES CONVERGED AFTER   2  ITERATIONS
 ALL LAKES CONVERGED AFTER   3  ITERATIONS
 ALL LAKES CONVERGED AFTER   3  ITERATIONS
 ALL LAKES CONVERGED AFTER   2  ITERATIONS
 ALL LAKES CONVERGED AFTER   2  ITERATIONS
 ALL LAKES CONVERGED AFTER   2  ITERATIONS
 ALL LAKES CONVERGED AFTER   2  ITERATIONS
 ALL LAKES CONVERGED AFTER   2  ITERATIONS
 ALL LAKES CONVERGED AFTER   2  ITERATIONS
 ALL LAKES CONVERGED AFTER   2  ITERATIONS
 ALL LAKES CONVERGED AFTER   1  ITERATIONS
 ALL LAKES CONVERGED AFTER   2  ITERATIONS
 ALL LAKES CONVERGED AFTER   1  ITERATIONS
    27 ITERATIONS FOR TIME STEP  18 IN STRESS PERIOD    1

 MAXIMUM HEAD CHANGE FOR EACH ITERATION:

    HEAD CHANGE   HEAD CHANGE   HEAD CHANGE   HEAD CHANGE   HEAD CHANGE
  LAYER,ROW,COL LAYER,ROW,COL LAYER,ROW,COL LAYER,ROW,COL LAYER,ROW,COL
 ----------------------------------------------------------------------
     0.8155        0.5941        0.2858        0.1021        0.1311    
  (  1, 12,  5) (  5, 11,  5) (  5,  8,  5) (  2,  7,  9) (  3, 10,  8)
     0.5525E-01    0.4178E-01    0.2764E-01    0.3552E-01    0.1549E-01
  (  2,  7,  7) (  5, 10,  8) (  3,  8, 10) (  3, 10,  8) (  3,  8, 10)
     0.1827E-01    0.9137E-02    0.9218E-02    0.4596E-02    0.5894E-02
  (  3,  8,  8) (  5,  9,  9) (  5, 10,  8) (  3,  8, 10) (  3, 10,  8)
     0.2474E-02    0.1852E-02    0.1234E-02    0.1578E-02    0.7007E-03
  (  2,  7,  7) (  5, 10,  8) (  3,  8, 10) (  3, 10,  8) (  2,  8, 11)
     0.8147E-03    0.4086E-03    0.4069E-03    0.2109E-03    0.2685E-03
  (  3,  8,  8) (  5,  9,  9) (  5, 10,  8) (  3,  8, 10) (  3, 10,  8)
     0.1106E-03    0.7981E-04
  (  3,  8, 10) (  5, 10,  9)


 HEAD/DRAWDOWN PRINTOUT FLAG = 0     TOTAL BUDGET PRINTOUT FLAG = 0
 CELL-BY-CELL FLOW TERM FLAG = 1

 OUTPUT FLAGS FOR ALL LAYERS ARE THE SAME:
   HEAD    DRAWDOWN  HEAD  DRAWDOWN
 PRINTOUT  PRINTOUT  SAVE    SAVE
 ----------------------------------
     0         0       0       0


     0  LAKE CELLS ARE DRY.

 PERIOD     1     TIME STEP    18     TIME STEP LENGTH  2.2423E+01
 PERIOD TIME  3.4289E+02     TOTAL SIMULATION TIME  3.4289E+02


                 HYDROLOGIC BUDGET SUMMARIES FOR SIMULATED LAKES
     (ALL FLUID FLUXES ARE VOLUMES ADDED TO THE LAKE DURING PRESENT TIME STEP)
     -------------------------------------------------------------------------
 LAKE   STAGE     PRECIP       EVAP       RUNOFF
   1   118.85  1.6257E+06  1.4435E+06  0.0000E+00

            GROUND WATER            SURFACE WATER
 LAKE    INFLOW     OUTFLOW      INFLOW     OUTFLOW
   1  5.0329E+06  0.0000E+00  0.0000E+00  0.0000E+00

         WATER    CONNECTED LAKE   UPDATED     TIME-STEP          STAGE CHANGE
 LAKE     USE         INFLUX        VOLUME    SURFACE AREA   TIME STEP  CUMULATIVE
   1   0.0000E+00   0.0000E+00   9.6548E+07    6.2500E+06   8.3428E-01  8.8477E+00
 --------------------------------------------------------------------------------



            CUMULATIVE HYDROLOGIC BUDGET SUMMARIES FOR SIMULATED LAKES
     (ALL FLUID FLUXES ARE SUMS OF VOLUMES ADDED TO THE LAKE SINCE INITIAL TIME)
     ---------------------------------------------------------------------------
 LAKE       PRECIP       EVAP       RUNOFF
   1     2.4860E+07  2.2074E+07  0.0000E+00

            GROUND WATER            SURFACE WATER
 LAKE    INFLOW     OUTFLOW      INFLOW     OUTFLOW
   1  5.2520E+07  0.0000E+00  0.0000E+00  0.0000E+00

         WATER    CONNECTED LAKE
 LAKE     USE         INFLUX
   1   0.0000E+00   0.0000E+00
 --------------------------------------------------------------------------------

 
 SOLVING FOR HEAD 
 ALL LAKES CONVERGED AFTER   4  ITERATIONS
 ALL LAKES CONVERGED AFTER   3  ITERATIONS
 ALL LAKES CONVERGED AFTER   3  ITERATIONS
 ALL LAKES CONVERGED AFTER   3  ITERATIONS
 ALL LAKES CONVERGED AFTER   3  ITERATIONS
 ALL LAKES CONVERGED AFTER   4  ITERATIONS
 ALL LAKES CONVERGED AFTER   3  ITERATIONS
 ALL LAKES CONVERGED AFTER   3  ITERATIONS
 ALL LAKES CONVERGED AFTER   3  ITERATIONS
 ALL LAKES CONVERGED AFTER   3  ITERATIONS
 ALL LAKES CONVERGED AFTER   2  ITERATIONS
 ALL LAKES CONVERGED AFTER   2  ITERATIONS
 ALL LAKES CONVERGED AFTER   2  ITERATIONS
 ALL LAKES CONVERGED AFTER   2  ITERATIONS
 ALL LAKES CONVERGED AFTER   2  ITERATIONS
 ALL LAKES CONVERGED AFTER   3  ITERATIONS
 ALL LAKES CONVERGED AFTER   3  ITERATIONS
 ALL LAKES CONVERGED AFTER   2  ITERATIONS
 ALL LAKES CONVERGED AFTER   2  ITERATIONS
 ALL LAKES CONVERGED AFTER   2  ITERATIONS
 ALL LAKES CONVERGED AFTER   2  ITERATIONS
 ALL LAKES CONVERGED AFTER   2  ITERATIONS
 ALL LAKES CONVERGED AFTER   2  ITERATIONS
 ALL LAKES CONVERGED AFTER   2  ITERATIONS
 ALL LAKES CONVERGED AFTER   1  ITERATIONS
 ALL LAKES CONVERGED AFTER   2  ITERATIONS
 ALL LAKES CONVERGED AFTER   1  ITERATIONS
    27 ITERATIONS FOR TIME STEP  19 IN STRESS PERIOD    1

 MAXIMUM HEAD CHANGE FOR EACH ITERATION:

    HEAD CHANGE   HEAD CHANGE   HEAD CHANGE   HEAD CHANGE   HEAD CHANGE
  LAYER,ROW,COL LAYER,ROW,COL LAYER,ROW,COL LAYER,ROW,COL LAYER,ROW,COL
 ----------------------------------------------------------------------
     0.6981        0.5511        0.2718        0.1070        0.1378    
  (  1, 12,  5) (  5, 11,  5) (  5,  8,  5) (  2,  7,  9) (  3, 10,  8)
     0.5840E-01    0.4437E-01    0.2952E-01    0.3801E-01    0.1670E-01
  (  2,  7,  7) (  5, 10,  8) (  3,  8, 10) (  3, 10,  8) (  3,  8, 10)
     0.1971E-01    0.9896E-02    0.1003E-01    0.5040E-02    0.6462E-02
  (  3,  8,  8) (  5,  9,  9) (  5, 10,  8) (  3,  8, 10) (  3, 10,  8)
     0.2729E-02    0.2068E-02    0.1378E-02    0.1769E-02    0.7828E-03
  (  2,  7,  7) (  5, 10,  8) (  3,  8, 10) (  3, 10,  8) (  3,  8, 10)
     0.9263E-03    0.4636E-03    0.4708E-03    0.2354E-03    0.2985E-03
  (  3,  8,  8) (  5,  9,  9) (  5, 10,  8) (  2,  9, 11) (  3, 10,  8)
     0.1338E-03    0.9825E-04
  (  2,  7, 10) (  5, 11,  9)


 HEAD/DRAWDOWN PRINTOUT FLAG = 0     TOTAL BUDGET PRINTOUT FLAG = 0
 CELL-BY-CELL FLOW TERM FLAG = 1

 OUTPUT FLAGS FOR ALL LAYERS ARE THE SAME:
   HEAD    DRAWDOWN  HEAD  DRAWDOWN
 PRINTOUT  PRINTOUT  SAVE    SAVE
 ----------------------------------
     0         0       0       0


     0  LAKE CELLS ARE DRY.

 PERIOD     1     TIME STEP    19     TIME STEP LENGTH  2.2872E+01
 PERIOD TIME  3.6576E+02     TOTAL SIMULATION TIME  3.6576E+02


                 HYDROLOGIC BUDGET SUMMARIES FOR SIMULATED LAKES
     (ALL FLUID FLUXES ARE VOLUMES ADDED TO THE LAKE DURING PRESENT TIME STEP)
     -------------------------------------------------------------------------
 LAKE   STAGE     PRECIP       EVAP       RUNOFF
   1   119.73  1.6582E+06  1.4724E+06  0.0000E+00

            GROUND WATER            SURFACE WATER
 LAKE    INFLOW     OUTFLOW      INFLOW     OUTFLOW
   1  5.3018E+06  0.0000E+00  0.0000E+00  0.0000E+00

         WATER    CONNECTED LAKE   UPDATED     TIME-STEP          STAGE CHANGE
 LAKE     USE         INFLUX        VOLUME    SURFACE AREA   TIME STEP  CUMULATIVE
   1   0.0000E+00   0.0000E+00   1.0204E+08    6.2500E+06   8.7790E-01  9.7256E+00
 --------------------------------------------------------------------------------



            CUMULATIVE HYDROLOGIC BUDGET SUMMARIES FOR SIMULATED LAKES
     (ALL FLUID FLUXES ARE SUMS OF VOLUMES ADDED TO THE LAKE SINCE INITIAL TIME)
     ---------------------------------------------------------------------------
 LAKE       PRECIP       EVAP       RUNOFF
   1     2.6518E+07  2.3546E+07  0.0000E+00

            GROUND WATER            SURFACE WATER
 LAKE    INFLOW     OUTFLOW      INFLOW     OUTFLOW
   1  5.7821E+07  0.0000E+00  0.0000E+00  0.0000E+00

         WATER    CONNECTED LAKE
 LAKE     USE         INFLUX
   1   0.0000E+00   0.0000E+00
 --------------------------------------------------------------------------------

 
 SOLVING FOR HEAD 
 ALL LAKES CONVERGED AFTER   4  ITERATIONS
 ALL LAKES CONVERGED AFTER   3  ITERATIONS
 ALL LAKES CONVERGED AFTER   3  ITERATIONS
 ALL LAKES CONVERGED AFTER   2  ITERATIONS
 ALL LAKES CONVERGED AFTER   3  ITERATIONS
 ALL LAKES CONVERGED AFTER   3  ITERATIONS
 ALL LAKES CONVERGED AFTER   3  ITERATIONS
 ALL LAKES CONVERGED AFTER   3  ITERATIONS
 ALL LAKES CONVERGED AFTER   3  ITERATIONS
 ALL LAKES CONVERGED AFTER   3  ITERATIONS
 ALL LAKES CONVERGED AFTER   2  ITERATIONS
 ALL LAKES CONVERGED AFTER   3  ITERATIONS
 ALL LAKES CONVERGED AFTER   3  ITERATIONS
 ALL LAKES CONVERGED AFTER   3  ITERATIONS
 ALL LAKES CONVERGED AFTER   2  ITERATIONS
 ALL LAKES CONVERGED AFTER   2  ITERATIONS
 ALL LAKES CONVERGED AFTER   2  ITERATIONS
 ALL LAKES CONVERGED AFTER   2  ITERATIONS
 ALL LAKES CONVERGED AFTER   2  ITERATIONS
 ALL LAKES CONVERGED AFTER   2  ITERATIONS
 ALL LAKES CONVERGED AFTER   2  ITERATIONS
 ALL LAKES CONVERGED AFTER   2  ITERATIONS
 ALL LAKES CONVERGED AFTER   2  ITERATIONS
 ALL LAKES CONVERGED AFTER   2  ITERATIONS
 ALL LAKES CONVERGED AFTER   1  ITERATIONS
 ALL LAKES CONVERGED AFTER   2  ITERATIONS
 ALL LAKES CONVERGED AFTER   1  ITERATIONS
 ALL LAKES CONVERGED AFTER   1  ITERATIONS
    28 ITERATIONS FOR TIME STEP  20 IN STRESS PERIOD    1

 MAXIMUM HEAD CHANGE FOR EACH ITERATION:

    HEAD CHANGE   HEAD CHANGE   HEAD CHANGE   HEAD CHANGE   HEAD CHANGE
  LAYER,ROW,COL LAYER,ROW,COL LAYER,ROW,COL LAYER,ROW,COL LAYER,ROW,COL
 ----------------------------------------------------------------------
     0.6478        0.4846        0.2336        0.1112        0.1435    
  (  1, 12,  6) (  5, 11,  5) (  5,  8,  5) (  3,  8, 10) (  3, 10,  8)
     0.6122E-01    0.4670E-01    0.3126E-01    0.4032E-01    0.1784E-01
  (  2,  7,  7) (  5, 10,  8) (  3,  8, 10) (  3, 10,  8) (  3,  8, 10)
     0.2108E-01    0.1065E-01    0.1084E-01    0.5474E-02    0.7031E-02
  (  3,  8,  8) (  5,  9,  9) (  5, 10,  8) (  3,  8, 10) (  3, 10,  8)
     0.2986E-02    0.2276E-02    0.1521E-02    0.1959E-02    0.8734E-03
  (  2,  7,  7) (  5, 10,  8) (  3,  8, 10) (  3, 10,  8) (  3,  8, 10)
     0.1030E-02    0.5188E-03    0.5244E-03    0.2649E-03    0.3387E-03
  (  3,  8,  8) (  5,  9,  9) (  5, 10,  8) (  2,  8, 11) (  3, 10,  8)
     0.1498E-03    0.1150E-03    0.7173E-04
  (  2,  7,  7) (  5, 10,  8) (  3,  8, 10)


 HEAD/DRAWDOWN PRINTOUT FLAG = 1     TOTAL BUDGET PRINTOUT FLAG = 1
 CELL-BY-CELL FLOW TERM FLAG = 1

 OUTPUT FLAGS FOR EACH LAYER:
          HEAD    DRAWDOWN  HEAD  DRAWDOWN
 LAYER  PRINTOUT  PRINTOUT  SAVE    SAVE
 -----------------------------------------
    1       0         0       0       0
    2       0         0       0       0
    3       0         0       0       0
    4       0         0       0       0
    5       1         0       0       0


     0  LAKE CELLS ARE DRY.

 PERIOD     1     TIME STEP    20     TIME STEP LENGTH  2.3329E+01
 PERIOD TIME  3.8909E+02     TOTAL SIMULATION TIME  3.8909E+02


                 HYDROLOGIC BUDGET SUMMARIES FOR SIMULATED LAKES
     (ALL FLUID FLUXES ARE VOLUMES ADDED TO THE LAKE DURING PRESENT TIME STEP)
     -------------------------------------------------------------------------
 LAKE   STAGE     PRECIP       EVAP       RUNOFF
   1   120.64  1.6914E+06  1.5018E+06  0.0000E+00

            GROUND WATER            SURFACE WATER
 LAKE    INFLOW     OUTFLOW      INFLOW     OUTFLOW
   1  5.5408E+06  0.0000E+00  0.0000E+00  0.0000E+00

         WATER    CONNECTED LAKE   UPDATED     TIME-STEP          STAGE CHANGE
 LAKE     USE         INFLUX        VOLUME    SURFACE AREA   TIME STEP  CUMULATIVE
   1   0.0000E+00   0.0000E+00   1.0777E+08    6.2500E+06   9.1677E-01  1.0642E+01
 --------------------------------------------------------------------------------



            CUMULATIVE HYDROLOGIC BUDGET SUMMARIES FOR SIMULATED LAKES
     (ALL FLUID FLUXES ARE SUMS OF VOLUMES ADDED TO THE LAKE SINCE INITIAL TIME)
     ---------------------------------------------------------------------------
 LAKE       PRECIP       EVAP       RUNOFF
   1     2.8209E+07  2.5048E+07  0.0000E+00

            GROUND WATER            SURFACE WATER
 LAKE    INFLOW     OUTFLOW      INFLOW     OUTFLOW
   1  6.3362E+07  0.0000E+00  0.0000E+00  0.0000E+00

         WATER    CONNECTED LAKE
 LAKE     USE         INFLUX
   1   0.0000E+00   0.0000E+00
 --------------------------------------------------------------------------------

1
              HEAD IN LAYER   5 AT END OF TIME STEP  20 IN STRESS PERIOD    1
  ---------------------------------------------------------------------------

          1      2      3      4      5      6      7      8      9     10
 .........................................................................
   1   160.0  158.9  157.3  155.8  154.2  152.7  151.5  150.8  150.0  149.2
   2   160.0  158.3  156.0  153.9  152.1  150.3  149.1  148.3  147.5  146.8
   3   160.0  157.6  154.4  151.6  149.1  147.0  145.7  144.9  144.2  143.5
   4   160.0  157.2  153.2  149.7  146.6  144.0  142.4  141.5  140.8  140.3
   5   160.0  156.8  152.3  148.1  144.3  140.7  138.5  137.5  136.8  136.4
   6   160.0  156.6  151.6  146.8  142.0  136.4  132.0  130.4  129.8  129.8
   7   160.0  156.5  151.3  146.2  140.6  132.6  121.4  121.0  120.9  120.9
   8   160.0  156.4  151.2  145.9  140.0  131.4  121.0  120.7  120.7  120.7
   9   160.0  156.4  151.1  145.8  139.8  131.0  121.0  120.7  120.6  120.7
  10   160.0  156.4  151.2  145.9  140.0  131.4  121.0  120.7  120.7  120.7
  11   160.0  156.5  151.3  146.2  140.6  132.6  121.4  121.0  120.9  120.9
  12   160.0  156.6  151.6  146.8  142.0  136.4  132.0  130.4  129.8  129.8
  13   160.0  156.8  152.3  148.1  144.3  140.7  138.5  137.5  136.8  136.4
  14   160.0  157.2  153.2  149.7  146.6  144.0  142.4  141.5  140.8  140.3
  15   160.0  157.6  154.4  151.6  149.1  147.0  145.7  144.9  144.2  143.5
  16   160.0  158.3  156.0  153.9  152.1  150.3  149.1  148.3  147.5  146.8
  17   160.0  158.9  157.3  155.8  154.2  152.7  151.5  150.8  150.0  149.2
1
              HEAD IN LAYER   5 AT END OF TIME STEP  20 IN STRESS PERIOD    1
  ---------------------------------------------------------------------------

         11     12     13     14     15     16     17
 ....................................................
   1   148.5  147.3  145.8  144.2  142.7  141.1  140.0
   2   146.1  145.1  143.7  142.5  141.3  140.4  140.0
   3   142.9  142.1  141.2  140.4  139.9  139.7  140.0
   4   139.9  139.4  139.1  138.8  138.8  139.3  140.0
   5   136.3  136.7  137.2  137.6  138.1  139.0  140.0
   6   130.5  133.1  135.4  136.6  137.6  138.8  140.0
   7   121.2  129.9  134.3  136.1  137.4  138.7  140.0
   8   120.9  128.8  133.8  135.9  137.3  138.7  140.0
   9   120.9  128.5  133.7  135.9  137.3  138.7  140.0
  10   120.9  128.8  133.8  135.9  137.3  138.7  140.0
  11   121.2  129.9  134.3  136.1  137.4  138.7  140.0
  12   130.5  133.1  135.4  136.6  137.6  138.8  140.0
  13   136.3  136.7  137.2  137.6  138.1  139.0  140.0
  14   139.9  139.4  139.1  138.8  138.8  139.3  140.0
  15   142.9  142.1  141.2  140.4  139.9  139.7  140.0
  16   146.1  145.1  143.7  142.5  141.3  140.4  140.0
  17   148.5  147.3  145.8  144.2  142.7  141.1  140.0
1
  VOLUMETRIC BUDGET FOR ENTIRE MODEL AT END OF TIME STEP 20 IN STRESS PERIOD   1
  ------------------------------------------------------------------------------

     CUMULATIVE VOLUMES      L**3       RATES FOR THIS TIME STEP      L**3/T
     ------------------                 ------------------------

           IN:                                      IN:
           ---                                      ---
             STORAGE =       31346.7051               STORAGE =           0.0000
       CONSTANT HEAD =   470805440.0000         CONSTANT HEAD =      366887.4062
                  ET =           0.0000                    ET =           0.0000
            RECHARGE =   677019392.0000              RECHARGE =     1740000.0000
     SPECIFIED FLOWS =           0.0000       SPECIFIED FLOWS =           0.0000
       LAKE  SEEPAGE =           0.0000         LAKE  SEEPAGE =           0.0000

            TOTAL IN =  1147856128.0000              TOTAL IN =     2106887.5000

          OUT:                                     OUT:
          ----                                     ----
             STORAGE =   851175744.0000               STORAGE =      665739.0625
       CONSTANT HEAD =      224277.3594         CONSTANT HEAD =        2508.1765
                  ET =   233088592.0000                    ET =     1201107.7500
            RECHARGE =           0.0000              RECHARGE =           0.0000
     SPECIFIED FLOWS =           0.0000       SPECIFIED FLOWS =           0.0000
       LAKE  SEEPAGE =    63362204.0000         LAKE  SEEPAGE =      237505.5312

           TOTAL OUT =  1147850880.0000             TOTAL OUT =     2106860.5000

            IN - OUT =        5248.0000              IN - OUT =          27.0000

 PERCENT DISCREPANCY =           0.00     PERCENT DISCREPANCY =           0.00






          TIME SUMMARY AT END OF TIME STEP  20 IN STRESS PERIOD    1
                    SECONDS     MINUTES      HOURS       DAYS        YEARS
                    -----------------------------------------------------------
   TIME STEP LENGTH 2.01562E+06  33594.      559.90      23.329     6.38713E-02
 STRESS PERIOD TIME 3.36175E+07 5.60292E+05  9338.2      389.09      1.0653    
         TOTAL TIME 3.36175E+07 5.60292E+05  9338.2      389.09      1.0653    
1
 
 SOLVING FOR HEAD 
 ALL LAKES CONVERGED AFTER   4  ITERATIONS
 ALL LAKES CONVERGED AFTER   4  ITERATIONS
 ALL LAKES CONVERGED AFTER   3  ITERATIONS
 ALL LAKES CONVERGED AFTER   3  ITERATIONS
 ALL LAKES CONVERGED AFTER   2  ITERATIONS
 ALL LAKES CONVERGED AFTER   3  ITERATIONS
 ALL LAKES CONVERGED AFTER   2  ITERATIONS
 ALL LAKES CONVERGED AFTER   3  ITERATIONS
 ALL LAKES CONVERGED AFTER   2  ITERATIONS
 ALL LAKES CONVERGED AFTER   3  ITERATIONS
 ALL LAKES CONVERGED AFTER   3  ITERATIONS
 ALL LAKES CONVERGED AFTER   3  ITERATIONS
 ALL LAKES CONVERGED AFTER   3  ITERATIONS
 ALL LAKES CONVERGED AFTER   2  ITERATIONS
 ALL LAKES CONVERGED AFTER   2  ITERATIONS
 ALL LAKES CONVERGED AFTER   2  ITERATIONS
 ALL LAKES CONVERGED AFTER   3  ITERATIONS
 ALL LAKES CONVERGED AFTER   2  ITERATIONS
 ALL LAKES CONVERGED AFTER   2  ITERATIONS
 ALL LAKES CONVERGED AFTER   2  ITERATIONS
 ALL LAKES CONVERGED AFTER   2  ITERATIONS
 ALL LAKES CONVERGED AFTER   2  ITERATIONS
 ALL LAKES CONVERGED AFTER   2  ITERATIONS
 ALL LAKES CONVERGED AFTER   2  ITERATIONS
 ALL LAKES CONVERGED AFTER   1  ITERATIONS
 ALL LAKES CONVERGED AFTER   2  ITERATIONS
 ALL LAKES CONVERGED AFTER   2  ITERATIONS
 ALL LAKES CONVERGED AFTER   1  ITERATIONS
    28 ITERATIONS FOR TIME STEP  21 IN STRESS PERIOD    1

 MAXIMUM HEAD CHANGE FOR EACH ITERATION:

    HEAD CHANGE   HEAD CHANGE   HEAD CHANGE   HEAD CHANGE   HEAD CHANGE
  LAYER,ROW,COL LAYER,ROW,COL LAYER,ROW,COL LAYER,ROW,COL LAYER,ROW,COL
 ----------------------------------------------------------------------
     0.5946        0.4307        0.2245        0.1149        0.1484    
  (  1, 12,  6) (  5, 11,  5) (  5,  9,  6) (  3,  8, 10) (  3, 10,  8)
     0.6372E-01    0.4881E-01    0.3284E-01    0.4245E-01    0.1891E-01
  (  2,  7,  7) (  5, 10,  8) (  3,  8, 10) (  3, 10,  8) (  3,  8, 10)
     0.2236E-01    0.1137E-01    0.1160E-01    0.5897E-02    0.7597E-02
  (  3,  8,  8) (  5,  9,  9) (  5, 10,  8) (  3,  8, 10) (  3, 10,  8)
     0.3259E-02    0.2484E-02    0.1666E-02    0.2158E-02    0.9555E-03
  (  2,  7,  7) (  5, 10,  8) (  3,  8, 10) (  3, 10,  8) (  2,  7, 10)
     0.1133E-02    0.5738E-03    0.5882E-03    0.3023E-03    0.3982E-03
  (  3,  8,  8) (  5,  9,  9) (  5, 10,  8) (  3,  8, 10) (  3, 10,  8)
     0.1612E-03    0.1264E-03    0.8937E-04
  (  2,  7,  7) (  5, 10,  8) (  2,  9, 11)


 HEAD/DRAWDOWN PRINTOUT FLAG = 0     TOTAL BUDGET PRINTOUT FLAG = 0
 CELL-BY-CELL FLOW TERM FLAG = 1

 OUTPUT FLAGS FOR ALL LAYERS ARE THE SAME:
   HEAD    DRAWDOWN  HEAD  DRAWDOWN
 PRINTOUT  PRINTOUT  SAVE    SAVE
 ----------------------------------
     0         0       0       0


     0  LAKE CELLS ARE DRY.

 PERIOD     1     TIME STEP    21     TIME STEP LENGTH  2.3796E+01
 PERIOD TIME  4.1289E+02     TOTAL SIMULATION TIME  4.1289E+02


                 HYDROLOGIC BUDGET SUMMARIES FOR SIMULATED LAKES
     (ALL FLUID FLUXES ARE VOLUMES ADDED TO THE LAKE DURING PRESENT TIME STEP)
     -------------------------------------------------------------------------
 LAKE   STAGE     PRECIP       EVAP       RUNOFF
   1   121.59  1.7252E+06  1.5318E+06  0.0000E+00

            GROUND WATER            SURFACE WATER
 LAKE    INFLOW     OUTFLOW      INFLOW     OUTFLOW
   1  5.7456E+06  0.0000E+00  0.0000E+00  0.0000E+00

         WATER    CONNECTED LAKE   UPDATED     TIME-STEP          STAGE CHANGE
 LAKE     USE         INFLUX        VOLUME    SURFACE AREA   TIME STEP  CUMULATIVE
   1   0.0000E+00   0.0000E+00   1.1370E+08    6.2500E+06   9.5015E-01  1.1593E+01
 --------------------------------------------------------------------------------



            CUMULATIVE HYDROLOGIC BUDGET SUMMARIES FOR SIMULATED LAKES
     (ALL FLUID FLUXES ARE SUMS OF VOLUMES ADDED TO THE LAKE SINCE INITIAL TIME)
     ---------------------------------------------------------------------------
 LAKE       PRECIP       EVAP       RUNOFF
   1     2.9934E+07  2.6580E+07  0.0000E+00

            GROUND WATER            SURFACE WATER
 LAKE    INFLOW     OUTFLOW      INFLOW     OUTFLOW
   1  6.9108E+07  0.0000E+00  0.0000E+00  0.0000E+00

         WATER    CONNECTED LAKE
 LAKE     USE         INFLUX
   1   0.0000E+00   0.0000E+00
 --------------------------------------------------------------------------------

 
 SOLVING FOR HEAD 
 ALL LAKES CONVERGED AFTER   3  ITERATIONS
 ALL LAKES CONVERGED AFTER   3  ITERATIONS
 ALL LAKES CONVERGED AFTER   3  ITERATIONS
 ALL LAKES CONVERGED AFTER   3  ITERATIONS
 ALL LAKES CONVERGED AFTER   3  ITERATIONS
 ALL LAKES CONVERGED AFTER   3  ITERATIONS
 ALL LAKES CONVERGED AFTER   3  ITERATIONS
 ALL LAKES CONVERGED AFTER   3  ITERATIONS
 ALL LAKES CONVERGED AFTER   3  ITERATIONS
 ALL LAKES CONVERGED AFTER   2  ITERATIONS
 ALL LAKES CONVERGED AFTER   3  ITERATIONS
 ALL LAKES CONVERGED AFTER   2  ITERATIONS
 ALL LAKES CONVERGED AFTER   2  ITERATIONS
 ALL LAKES CONVERGED AFTER   3  ITERATIONS
 ALL LAKES CONVERGED AFTER   2  ITERATIONS
 ALL LAKES CONVERGED AFTER   2  ITERATIONS
 ALL LAKES CONVERGED AFTER   3  ITERATIONS
 ALL LAKES CONVERGED AFTER   2  ITERATIONS
 ALL LAKES CONVERGED AFTER   2  ITERATIONS
 ALL LAKES CONVERGED AFTER   2  ITERATIONS
 ALL LAKES CONVERGED AFTER   2  ITERATIONS
 ALL LAKES CONVERGED AFTER   2  ITERATIONS
 ALL LAKES CONVERGED AFTER   2  ITERATIONS
 ALL LAKES CONVERGED AFTER   2  ITERATIONS
 ALL LAKES CONVERGED AFTER   2  ITERATIONS
 ALL LAKES CONVERGED AFTER   2  ITERATIONS
 ALL LAKES CONVERGED AFTER   2  ITERATIONS
 ALL LAKES CONVERGED AFTER   2  ITERATIONS
 ALL LAKES CONVERGED AFTER   1  ITERATIONS
 ALL LAKES CONVERGED AFTER   1  ITERATIONS
    30 ITERATIONS FOR TIME STEP  22 IN STRESS PERIOD    1

 MAXIMUM HEAD CHANGE FOR EACH ITERATION:

    HEAD CHANGE   HEAD CHANGE   HEAD CHANGE   HEAD CHANGE   HEAD CHANGE
  LAYER,ROW,COL LAYER,ROW,COL LAYER,ROW,COL LAYER,ROW,COL LAYER,ROW,COL
 ----------------------------------------------------------------------
     0.5418        0.3855        0.2143        0.1178        0.1522    
  (  1, 12,  6) (  5, 11,  5) (  5,  8,  6) (  3,  8, 10) (  3, 10,  8)
     0.6577E-01    0.5062E-01    0.3425E-01    0.4436E-01    0.1989E-01
  (  2,  7,  7) (  5, 10,  8) (  3,  8, 10) (  3, 10,  8) (  3,  8, 10)
     0.2356E-01    0.1203E-01    0.1232E-01    0.6311E-02    0.8136E-02
  (  3,  8,  8) (  5,  9,  9) (  5, 10,  8) (  3,  8, 10) (  3, 10,  8)
     0.3513E-02    0.2681E-02    0.1828E-02    0.2358E-02    0.1054E-02
  (  2,  7,  7) (  5, 10,  8) (  3,  8, 10) (  3, 10,  8) (  3,  8, 10)
     0.1255E-02    0.6483E-03    0.6564E-03    0.3337E-03    0.4279E-03
  (  3,  8,  8) (  5,  9,  9) (  5, 10,  8) (  2,  9, 11) (  3, 10,  8)
     0.1885E-03    0.1518E-03    0.1026E-03    0.1253E-03    0.5854E-04
  (  2,  7,  7) (  5,  9,  7) (  3,  8, 10) (  5, 10,  8) (  2,  7, 10)


 HEAD/DRAWDOWN PRINTOUT FLAG = 0     TOTAL BUDGET PRINTOUT FLAG = 0
 CELL-BY-CELL FLOW TERM FLAG = 1

 OUTPUT FLAGS FOR ALL LAYERS ARE THE SAME:
   HEAD    DRAWDOWN  HEAD  DRAWDOWN
 PRINTOUT  PRINTOUT  SAVE    SAVE
 ----------------------------------
     0         0       0       0


     0  LAKE CELLS ARE DRY.

 PERIOD     1     TIME STEP    22     TIME STEP LENGTH  2.4271E+01
 PERIOD TIME  4.3716E+02     TOTAL SIMULATION TIME  4.3716E+02


                 HYDROLOGIC BUDGET SUMMARIES FOR SIMULATED LAKES
     (ALL FLUID FLUXES ARE VOLUMES ADDED TO THE LAKE DURING PRESENT TIME STEP)
     -------------------------------------------------------------------------
 LAKE   STAGE     PRECIP       EVAP       RUNOFF
   1   122.57  1.7597E+06  1.5625E+06  0.0000E+00

            GROUND WATER            SURFACE WATER
 LAKE    INFLOW     OUTFLOW      INFLOW     OUTFLOW
   1  5.9126E+06  0.0000E+00  0.0000E+00  0.0000E+00

         WATER    CONNECTED LAKE   UPDATED     TIME-STEP          STAGE CHANGE
 LAKE     USE         INFLUX        VOLUME    SURFACE AREA   TIME STEP  CUMULATIVE
   1   0.0000E+00   0.0000E+00   1.1981E+08    6.2500E+06   9.7752E-01  1.2570E+01
 --------------------------------------------------------------------------------



            CUMULATIVE HYDROLOGIC BUDGET SUMMARIES FOR SIMULATED LAKES
     (ALL FLUID FLUXES ARE SUMS OF VOLUMES ADDED TO THE LAKE SINCE INITIAL TIME)
     ---------------------------------------------------------------------------
 LAKE       PRECIP       EVAP       RUNOFF
   1     3.1694E+07  2.8142E+07  0.0000E+00

            GROUND WATER            SURFACE WATER
 LAKE    INFLOW     OUTFLOW      INFLOW     OUTFLOW
   1  7.5020E+07  0.0000E+00  0.0000E+00  0.0000E+00

         WATER    CONNECTED LAKE
 LAKE     USE         INFLUX
   1   0.0000E+00   0.0000E+00
 --------------------------------------------------------------------------------

 
 SOLVING FOR HEAD 
 ALL LAKES CONVERGED AFTER   3  ITERATIONS
 ALL LAKES CONVERGED AFTER   3  ITERATIONS
 ALL LAKES CONVERGED AFTER   4  ITERATIONS
 ALL LAKES CONVERGED AFTER   3  ITERATIONS
 ALL LAKES CONVERGED AFTER   3  ITERATIONS
 ALL LAKES CONVERGED AFTER   3  ITERATIONS
 ALL LAKES CONVERGED AFTER   3  ITERATIONS
 ALL LAKES CONVERGED AFTER   3  ITERATIONS
 ALL LAKES CONVERGED AFTER   3  ITERATIONS
 ALL LAKES CONVERGED AFTER   3  ITERATIONS
 ALL LAKES CONVERGED AFTER   2  ITERATIONS
 ALL LAKES CONVERGED AFTER   3  ITERATIONS
 ALL LAKES CONVERGED AFTER   3  ITERATIONS
 ALL LAKES CONVERGED AFTER   3  ITERATIONS
 ALL LAKES CONVERGED AFTER   2  ITERATIONS
 ALL LAKES CONVERGED AFTER   2  ITERATIONS
 ALL LAKES CONVERGED AFTER   3  ITERATIONS
 ALL LAKES CONVERGED AFTER   2  ITERATIONS
 ALL LAKES CONVERGED AFTER   2  ITERATIONS
 ALL LAKES CONVERGED AFTER   2  ITERATIONS
 ALL LAKES CONVERGED AFTER   2  ITERATIONS
 ALL LAKES CONVERGED AFTER   2  ITERATIONS
 ALL LAKES CONVERGED AFTER   2  ITERATIONS
 ALL LAKES CONVERGED AFTER   2  ITERATIONS
 ALL LAKES CONVERGED AFTER   2  ITERATIONS
 ALL LAKES CONVERGED AFTER   2  ITERATIONS
 ALL LAKES CONVERGED AFTER   2  ITERATIONS
 ALL LAKES CONVERGED AFTER   2  ITERATIONS
 ALL LAKES CONVERGED AFTER   1  ITERATIONS
 ALL LAKES CONVERGED AFTER   1  ITERATIONS
    30 ITERATIONS FOR TIME STEP  23 IN STRESS PERIOD    1

 MAXIMUM HEAD CHANGE FOR EACH ITERATION:

    HEAD CHANGE   HEAD CHANGE   HEAD CHANGE   HEAD CHANGE   HEAD CHANGE
  LAYER,ROW,COL LAYER,ROW,COL LAYER,ROW,COL LAYER,ROW,COL LAYER,ROW,COL
 ----------------------------------------------------------------------
     0.4474        0.3469        0.2143        0.1199        0.1552    
  (  1, 12,  6) (  5,  6,  7) (  5, 10,  8) (  3,  8, 10) (  3, 10,  8)
     0.6751E-01    0.5217E-01    0.3548E-01    0.4604E-01    0.2077E-01
  (  2,  7,  7) (  5, 10,  8) (  3,  8, 10) (  3, 10,  8) (  3,  8, 10)
     0.2464E-01    0.1266E-01    0.1300E-01    0.6713E-02    0.8663E-02
  (  3,  8,  8) (  5,  9,  9) (  5, 10,  8) (  3,  8, 10) (  3, 10,  8)
     0.3752E-02    0.2896E-02    0.1963E-02    0.2559E-02    0.1155E-02
  (  2,  7,  7) (  5, 10,  8) (  3,  8, 10) (  3, 10,  8) (  3,  8, 10)
     0.1367E-02    0.7047E-03    0.7242E-03    0.3731E-03    0.4783E-03
  (  3,  8,  8) (  5,  9,  9) (  5, 10,  8) (  2,  9, 11) (  3, 10,  8)
     0.2167E-03    0.1617E-03    0.1088E-03    0.1336E-03    0.6024E-04
  (  2,  7,  7) (  5, 10,  8) (  2,  7,  9) (  4, 10,  8) (  3,  8, 10)


 HEAD/DRAWDOWN PRINTOUT FLAG = 0     TOTAL BUDGET PRINTOUT FLAG = 0
 CELL-BY-CELL FLOW TERM FLAG = 1

 OUTPUT FLAGS FOR ALL LAYERS ARE THE SAME:
   HEAD    DRAWDOWN  HEAD  DRAWDOWN
 PRINTOUT  PRINTOUT  SAVE    SAVE
 ----------------------------------
     0         0       0       0


     0  LAKE CELLS ARE DRY.

 PERIOD     1     TIME STEP    23     TIME STEP LENGTH  2.4757E+01
 PERIOD TIME  4.6192E+02     TOTAL SIMULATION TIME  4.6192E+02


                 HYDROLOGIC BUDGET SUMMARIES FOR SIMULATED LAKES
     (ALL FLUID FLUXES ARE VOLUMES ADDED TO THE LAKE DURING PRESENT TIME STEP)
     -------------------------------------------------------------------------
 LAKE   STAGE     PRECIP       EVAP       RUNOFF
   1   123.57  1.7949E+06  1.5937E+06  0.0000E+00

            GROUND WATER            SURFACE WATER
 LAKE    INFLOW     OUTFLOW      INFLOW     OUTFLOW
   1  6.0411E+06  0.0000E+00  0.0000E+00  0.0000E+00

         WATER    CONNECTED LAKE   UPDATED     TIME-STEP          STAGE CHANGE
 LAKE     USE         INFLUX        VOLUME    SURFACE AREA   TIME STEP  CUMULATIVE
   1   0.0000E+00   0.0000E+00   1.2605E+08    6.2500E+06   9.9869E-01  1.3569E+01
 --------------------------------------------------------------------------------



            CUMULATIVE HYDROLOGIC BUDGET SUMMARIES FOR SIMULATED LAKES
     (ALL FLUID FLUXES ARE SUMS OF VOLUMES ADDED TO THE LAKE SINCE INITIAL TIME)
     ---------------------------------------------------------------------------
 LAKE       PRECIP       EVAP       RUNOFF
   1     3.3489E+07  2.9736E+07  0.0000E+00

            GROUND WATER            SURFACE WATER
 LAKE    INFLOW     OUTFLOW      INFLOW     OUTFLOW
   1  8.1062E+07  0.0000E+00  0.0000E+00  0.0000E+00

         WATER    CONNECTED LAKE
 LAKE     USE         INFLUX
   1   0.0000E+00   0.0000E+00
 --------------------------------------------------------------------------------

 
 SOLVING FOR HEAD 
 ALL LAKES CONVERGED AFTER   3  ITERATIONS
 ALL LAKES CONVERGED AFTER   4  ITERATIONS
 ALL LAKES CONVERGED AFTER   3  ITERATIONS
 ALL LAKES CONVERGED AFTER   3  ITERATIONS
 ALL LAKES CONVERGED AFTER   3  ITERATIONS
 ALL LAKES CONVERGED AFTER   3  ITERATIONS
 ALL LAKES CONVERGED AFTER   3  ITERATIONS
 ALL LAKES CONVERGED AFTER   3  ITERATIONS
 ALL LAKES CONVERGED AFTER   3  ITERATIONS
 ALL LAKES CONVERGED AFTER   2  ITERATIONS
 ALL LAKES CONVERGED AFTER   2  ITERATIONS
 ALL LAKES CONVERGED AFTER   3  ITERATIONS
 ALL LAKES CONVERGED AFTER   3  ITERATIONS
 ALL LAKES CONVERGED AFTER   3  ITERATIONS
 ALL LAKES CONVERGED AFTER   2  ITERATIONS
 ALL LAKES CONVERGED AFTER   2  ITERATIONS
 ALL LAKES CONVERGED AFTER   2  ITERATIONS
 ALL LAKES CONVERGED AFTER   2  ITERATIONS
 ALL LAKES CONVERGED AFTER   2  ITERATIONS
 ALL LAKES CONVERGED AFTER   2  ITERATIONS
 ALL LAKES CONVERGED AFTER   2  ITERATIONS
 ALL LAKES CONVERGED AFTER   2  ITERATIONS
 ALL LAKES CONVERGED AFTER   2  ITERATIONS
 ALL LAKES CONVERGED AFTER   2  ITERATIONS
 ALL LAKES CONVERGED AFTER   2  ITERATIONS
 ALL LAKES CONVERGED AFTER   2  ITERATIONS
 ALL LAKES CONVERGED AFTER   2  ITERATIONS
 ALL LAKES CONVERGED AFTER   2  ITERATIONS
 ALL LAKES CONVERGED AFTER   1  ITERATIONS
 ALL LAKES CONVERGED AFTER   1  ITERATIONS
    30 ITERATIONS FOR TIME STEP  24 IN STRESS PERIOD    1

 MAXIMUM HEAD CHANGE FOR EACH ITERATION:

    HEAD CHANGE   HEAD CHANGE   HEAD CHANGE   HEAD CHANGE   HEAD CHANGE
  LAYER,ROW,COL LAYER,ROW,COL LAYER,ROW,COL LAYER,ROW,COL LAYER,ROW,COL
 ----------------------------------------------------------------------
     0.3919        0.3247        0.2165        0.1213        0.1572    
  (  1, 12,  6) (  5,  6,  7) (  5, 10,  8) (  3,  8, 10) (  3, 10,  8)
     0.6879E-01    0.5336E-01    0.3650E-01    0.4744E-01    0.2155E-01
  (  2,  7,  7) (  5, 10,  8) (  3,  8, 10) (  3, 10,  8) (  3,  8, 10)
     0.2558E-01    0.1322E-01    0.1361E-01    0.7076E-02    0.9133E-02
  (  3,  8,  8) (  5,  9,  9) (  5, 10,  8) (  3,  8, 10) (  3, 10,  8)
     0.3988E-02    0.3081E-02    0.2116E-02    0.2748E-02    0.1252E-02
  (  2,  7,  7) (  5, 10,  8) (  3,  8, 10) (  3, 10,  8) (  2,  9, 11)
     0.1480E-02    0.7600E-03    0.7882E-03    0.4131E-03    0.5283E-03
  (  3,  8,  8) (  5,  9,  9) (  5, 10,  8) (  3,  8, 10) (  3, 10,  8)
     0.2267E-03    0.1737E-03    0.1295E-03    0.1713E-03    0.7886E-04
  (  2,  7,  7) (  5, 10,  8) (  2,  9, 11) (  3, 10,  8) (  2,  9, 11)


 HEAD/DRAWDOWN PRINTOUT FLAG = 0     TOTAL BUDGET PRINTOUT FLAG = 0
 CELL-BY-CELL FLOW TERM FLAG = 1

 OUTPUT FLAGS FOR ALL LAYERS ARE THE SAME:
   HEAD    DRAWDOWN  HEAD  DRAWDOWN
 PRINTOUT  PRINTOUT  SAVE    SAVE
 ----------------------------------
     0         0       0       0


     0  LAKE CELLS ARE DRY.

 PERIOD     1     TIME STEP    24     TIME STEP LENGTH  2.5252E+01
 PERIOD TIME  4.8717E+02     TOTAL SIMULATION TIME  4.8717E+02


                 HYDROLOGIC BUDGET SUMMARIES FOR SIMULATED LAKES
     (ALL FLUID FLUXES ARE VOLUMES ADDED TO THE LAKE DURING PRESENT TIME STEP)
     -------------------------------------------------------------------------
 LAKE   STAGE     PRECIP       EVAP       RUNOFF
   1   124.58  1.8308E+06  1.6256E+06  0.0000E+00

            GROUND WATER            SURFACE WATER
 LAKE    INFLOW     OUTFLOW      INFLOW     OUTFLOW
   1  6.1285E+06  0.0000E+00  0.0000E+00  0.0000E+00

         WATER    CONNECTED LAKE   UPDATED     TIME-STEP          STAGE CHANGE
 LAKE     USE         INFLUX        VOLUME    SURFACE AREA   TIME STEP  CUMULATIVE
   1   0.0000E+00   0.0000E+00   1.3239E+08    6.2500E+06   1.0133E+00  1.4582E+01
 --------------------------------------------------------------------------------



            CUMULATIVE HYDROLOGIC BUDGET SUMMARIES FOR SIMULATED LAKES
     (ALL FLUID FLUXES ARE SUMS OF VOLUMES ADDED TO THE LAKE SINCE INITIAL TIME)
     ---------------------------------------------------------------------------
 LAKE       PRECIP       EVAP       RUNOFF
   1     3.5320E+07  3.1361E+07  0.0000E+00

            GROUND WATER            SURFACE WATER
 LAKE    INFLOW     OUTFLOW      INFLOW     OUTFLOW
   1  8.7190E+07  0.0000E+00  0.0000E+00  0.0000E+00

         WATER    CONNECTED LAKE
 LAKE     USE         INFLUX
   1   0.0000E+00   0.0000E+00
 --------------------------------------------------------------------------------

 
 SOLVING FOR HEAD 
 ALL LAKES CONVERGED AFTER   3  ITERATIONS
 ALL LAKES CONVERGED AFTER   3  ITERATIONS
 ALL LAKES CONVERGED AFTER   3  ITERATIONS
 ALL LAKES CONVERGED AFTER   3  ITERATIONS
 ALL LAKES CONVERGED AFTER   3  ITERATIONS
 ALL LAKES CONVERGED AFTER   3  ITERATIONS
 ALL LAKES CONVERGED AFTER   3  ITERATIONS
 ALL LAKES CONVERGED AFTER   2  ITERATIONS
 ALL LAKES CONVERGED AFTER   3  ITERATIONS
 ALL LAKES CONVERGED AFTER   3  ITERATIONS
 ALL LAKES CONVERGED AFTER   2  ITERATIONS
 ALL LAKES CONVERGED AFTER   2  ITERATIONS
 ALL LAKES CONVERGED AFTER   3  ITERATIONS
 ALL LAKES CONVERGED AFTER   3  ITERATIONS
 ALL LAKES CONVERGED AFTER   2  ITERATIONS
 ALL LAKES CONVERGED AFTER   3  ITERATIONS
 ALL LAKES CONVERGED AFTER   2  ITERATIONS
 ALL LAKES CONVERGED AFTER   2  ITERATIONS
 ALL LAKES CONVERGED AFTER   2  ITERATIONS
 ALL LAKES CONVERGED AFTER   2  ITERATIONS
 ALL LAKES CONVERGED AFTER   2  ITERATIONS
 ALL LAKES CONVERGED AFTER   2  ITERATIONS
 ALL LAKES CONVERGED AFTER   2  ITERATIONS
 ALL LAKES CONVERGED AFTER   2  ITERATIONS
 ALL LAKES CONVERGED AFTER   2  ITERATIONS
 ALL LAKES CONVERGED AFTER   2  ITERATIONS
 ALL LAKES CONVERGED AFTER   2  ITERATIONS
 ALL LAKES CONVERGED AFTER   2  ITERATIONS
 ALL LAKES CONVERGED AFTER   1  ITERATIONS
 ALL LAKES CONVERGED AFTER   1  ITERATIONS
    30 ITERATIONS FOR TIME STEP  25 IN STRESS PERIOD    1

 MAXIMUM HEAD CHANGE FOR EACH ITERATION:

    HEAD CHANGE   HEAD CHANGE   HEAD CHANGE   HEAD CHANGE   HEAD CHANGE
  LAYER,ROW,COL LAYER,ROW,COL LAYER,ROW,COL LAYER,ROW,COL LAYER,ROW,COL
 ----------------------------------------------------------------------
     0.3483        0.3052        0.2171        0.1220        0.1582    
  (  1, 12,  6) (  5,  6,  7) (  5, 10,  8) (  3,  8, 10) (  3, 10,  8)
     0.6967E-01    0.5427E-01    0.3731E-01    0.4858E-01    0.2220E-01
  (  2,  7,  7) (  5, 10,  8) (  3,  8, 10) (  3, 10,  8) (  3,  8, 10)
     0.2639E-01    0.1370E-01    0.1416E-01    0.7399E-02    0.9571E-02
  (  3,  8,  8) (  5,  9,  9) (  5, 10,  8) (  3,  8, 10) (  3, 10,  8)
     0.4207E-02    0.3273E-02    0.2249E-02    0.2919E-02    0.1345E-02
  (  2,  7,  7) (  5, 10,  8) (  3,  8, 10) (  3, 10,  8) (  3,  8, 10)
     0.1601E-02    0.8257E-03    0.8475E-03    0.4433E-03    0.5773E-03
  (  3,  8,  8) (  5,  9,  9) (  5, 10,  8) (  3,  8, 10) (  3, 10,  8)
     0.2581E-03    0.1976E-03    0.1431E-03    0.1795E-03    0.8824E-04
  (  2,  8, 11) (  5,  9,  7) (  3,  8, 10) (  3, 10,  8) (  2,  9, 11)


 HEAD/DRAWDOWN PRINTOUT FLAG = 0     TOTAL BUDGET PRINTOUT FLAG = 0
 CELL-BY-CELL FLOW TERM FLAG = 1

 OUTPUT FLAGS FOR ALL LAYERS ARE THE SAME:
   HEAD    DRAWDOWN  HEAD  DRAWDOWN
 PRINTOUT  PRINTOUT  SAVE    SAVE
 ----------------------------------
     0         0       0       0


     0  LAKE CELLS ARE DRY.

 PERIOD     1     TIME STEP    25     TIME STEP LENGTH  2.5757E+01
 PERIOD TIME  5.1292E+02     TOTAL SIMULATION TIME  5.1292E+02


                 HYDROLOGIC BUDGET SUMMARIES FOR SIMULATED LAKES
     (ALL FLUID FLUXES ARE VOLUMES ADDED TO THE LAKE DURING PRESENT TIME STEP)
     -------------------------------------------------------------------------
 LAKE   STAGE     PRECIP       EVAP       RUNOFF
   1   125.60  1.8674E+06  1.6581E+06  0.0000E+00

            GROUND WATER            SURFACE WATER
 LAKE    INFLOW     OUTFLOW      INFLOW     OUTFLOW
   1  6.1755E+06  0.0000E+00  0.0000E+00  0.0000E+00

         WATER    CONNECTED LAKE   UPDATED     TIME-STEP          STAGE CHANGE
 LAKE     USE         INFLUX        VOLUME    SURFACE AREA   TIME STEP  CUMULATIVE
   1   0.0000E+00   0.0000E+00   1.3877E+08    6.2500E+06   1.0215E+00  1.5604E+01
 --------------------------------------------------------------------------------



            CUMULATIVE HYDROLOGIC BUDGET SUMMARIES FOR SIMULATED LAKES
     (ALL FLUID FLUXES ARE SUMS OF VOLUMES ADDED TO THE LAKE SINCE INITIAL TIME)
     ---------------------------------------------------------------------------
 LAKE       PRECIP       EVAP       RUNOFF
   1     3.7187E+07  3.3020E+07  0.0000E+00

            GROUND WATER            SURFACE WATER
 LAKE    INFLOW     OUTFLOW      INFLOW     OUTFLOW
   1  9.3366E+07  0.0000E+00  0.0000E+00  0.0000E+00

         WATER    CONNECTED LAKE
 LAKE     USE         INFLUX
   1   0.0000E+00   0.0000E+00
 --------------------------------------------------------------------------------

 
 SOLVING FOR HEAD 
 ALL LAKES CONVERGED AFTER   2  ITERATIONS
 ALL LAKES CONVERGED AFTER   3  ITERATIONS
 ALL LAKES CONVERGED AFTER   3  ITERATIONS
 ALL LAKES CONVERGED AFTER   3  ITERATIONS
 ALL LAKES CONVERGED AFTER   3  ITERATIONS
 ALL LAKES CONVERGED AFTER   3  ITERATIONS
 ALL LAKES CONVERGED AFTER   3  ITERATIONS
 ALL LAKES CONVERGED AFTER   3  ITERATIONS
 ALL LAKES CONVERGED AFTER   3  ITERATIONS
 ALL LAKES CONVERGED AFTER   3  ITERATIONS
 ALL LAKES CONVERGED AFTER   3  ITERATIONS
 ALL LAKES CONVERGED AFTER   3  ITERATIONS
 ALL LAKES CONVERGED AFTER   3  ITERATIONS
 ALL LAKES CONVERGED AFTER   2  ITERATIONS
 ALL LAKES CONVERGED AFTER   2  ITERATIONS
 ALL LAKES CONVERGED AFTER   2  ITERATIONS
 ALL LAKES CONVERGED AFTER   2  ITERATIONS
 ALL LAKES CONVERGED AFTER   3  ITERATIONS
 ALL LAKES CONVERGED AFTER   2  ITERATIONS
 ALL LAKES CONVERGED AFTER   2  ITERATIONS
 ALL LAKES CONVERGED AFTER   2  ITERATIONS
 ALL LAKES CONVERGED AFTER   2  ITERATIONS
 ALL LAKES CONVERGED AFTER   2  ITERATIONS
 ALL LAKES CONVERGED AFTER   2  ITERATIONS
 ALL LAKES CONVERGED AFTER   2  ITERATIONS
 ALL LAKES CONVERGED AFTER   2  ITERATIONS
 ALL LAKES CONVERGED AFTER   2  ITERATIONS
 ALL LAKES CONVERGED AFTER   2  ITERATIONS
 ALL LAKES CONVERGED AFTER   1  ITERATIONS
 ALL LAKES CONVERGED AFTER   1  ITERATIONS
    30 ITERATIONS FOR TIME STEP  26 IN STRESS PERIOD    1

 MAXIMUM HEAD CHANGE FOR EACH ITERATION:

    HEAD CHANGE   HEAD CHANGE   HEAD CHANGE   HEAD CHANGE   HEAD CHANGE
  LAYER,ROW,COL LAYER,ROW,COL LAYER,ROW,COL LAYER,ROW,COL LAYER,ROW,COL
 ----------------------------------------------------------------------
     0.3126        0.2858        0.2163        0.1217        0.1580    
  (  1, 12,  6) (  4, 10,  6) (  5, 10,  8) (  3,  8, 10) (  3, 10,  8)
     0.6982E-01    0.5473E-01    0.3782E-01    0.4933E-01    0.2268E-01
  (  2,  7,  7) (  5, 10,  8) (  3,  8, 10) (  3, 10,  8) (  3,  8, 10)
     0.2697E-01    0.1408E-01    0.1459E-01    0.7671E-02    0.9948E-02
  (  3,  8,  8) (  5,  9,  9) (  5, 10,  8) (  3,  8, 10) (  3, 10,  8)
     0.4377E-02    0.3423E-02    0.2372E-02    0.3090E-02    0.1416E-02
  (  2,  7,  7) (  5, 10,  8) (  3,  8, 10) (  3, 10,  8) (  3,  8, 10)
     0.1686E-02    0.8889E-03    0.9138E-03    0.4738E-03    0.6181E-03
  (  3,  8,  8) (  5,  9,  9) (  5, 10,  8) (  3,  8, 10) (  3, 10,  8)
     0.2771E-03    0.2160E-03    0.1531E-03    0.1986E-03    0.9033E-04
  (  3,  8, 10) (  5, 10,  9) (  3,  8, 10) (  3, 10,  8) (  3,  8, 10)


 HEAD/DRAWDOWN PRINTOUT FLAG = 0     TOTAL BUDGET PRINTOUT FLAG = 0
 CELL-BY-CELL FLOW TERM FLAG = 1

 OUTPUT FLAGS FOR ALL LAYERS ARE THE SAME:
   HEAD    DRAWDOWN  HEAD  DRAWDOWN
 PRINTOUT  PRINTOUT  SAVE    SAVE
 ----------------------------------
     0         0       0       0


     0  LAKE CELLS ARE DRY.

 PERIOD     1     TIME STEP    26     TIME STEP LENGTH  2.6272E+01
 PERIOD TIME  5.3920E+02     TOTAL SIMULATION TIME  5.3920E+02


                 HYDROLOGIC BUDGET SUMMARIES FOR SIMULATED LAKES
     (ALL FLUID FLUXES ARE VOLUMES ADDED TO THE LAKE DURING PRESENT TIME STEP)
     -------------------------------------------------------------------------
 LAKE   STAGE     PRECIP       EVAP       RUNOFF
   1   126.63  1.9047E+06  1.6913E+06  0.0000E+00

            GROUND WATER            SURFACE WATER
 LAKE    INFLOW     OUTFLOW      INFLOW     OUTFLOW
   1  6.1764E+06  0.0000E+00  0.0000E+00  0.0000E+00

         WATER    CONNECTED LAKE   UPDATED     TIME-STEP          STAGE CHANGE
 LAKE     USE         INFLUX        VOLUME    SURFACE AREA   TIME STEP  CUMULATIVE
   1   0.0000E+00   0.0000E+00   1.4516E+08    6.2500E+06   1.0223E+00  1.6626E+01
 --------------------------------------------------------------------------------



            CUMULATIVE HYDROLOGIC BUDGET SUMMARIES FOR SIMULATED LAKES
     (ALL FLUID FLUXES ARE SUMS OF VOLUMES ADDED TO THE LAKE SINCE INITIAL TIME)
     ---------------------------------------------------------------------------
 LAKE       PRECIP       EVAP       RUNOFF
   1     3.9092E+07  3.4711E+07  0.0000E+00

            GROUND WATER            SURFACE WATER
 LAKE    INFLOW     OUTFLOW      INFLOW     OUTFLOW
   1  9.9542E+07  0.0000E+00  0.0000E+00  0.0000E+00

         WATER    CONNECTED LAKE
 LAKE     USE         INFLUX
   1   0.0000E+00   0.0000E+00
 --------------------------------------------------------------------------------

 
 SOLVING FOR HEAD 
 ALL LAKES CONVERGED AFTER   4  ITERATIONS
 ALL LAKES CONVERGED AFTER   3  ITERATIONS
 ALL LAKES CONVERGED AFTER   3  ITERATIONS
 ALL LAKES CONVERGED AFTER   4  ITERATIONS
 ALL LAKES CONVERGED AFTER   3  ITERATIONS
 ALL LAKES CONVERGED AFTER   4  ITERATIONS
 ALL LAKES CONVERGED AFTER   3  ITERATIONS
 ALL LAKES CONVERGED AFTER   3  ITERATIONS
 ALL LAKES CONVERGED AFTER   2  ITERATIONS
 ALL LAKES CONVERGED AFTER   3  ITERATIONS
 ALL LAKES CONVERGED AFTER   2  ITERATIONS
 ALL LAKES CONVERGED AFTER   2  ITERATIONS
 ALL LAKES CONVERGED AFTER   3  ITERATIONS
 ALL LAKES CONVERGED AFTER   3  ITERATIONS
 ALL LAKES CONVERGED AFTER   2  ITERATIONS
 ALL LAKES CONVERGED AFTER   3  ITERATIONS
 ALL LAKES CONVERGED AFTER   3  ITERATIONS
 ALL LAKES CONVERGED AFTER   2  ITERATIONS
 ALL LAKES CONVERGED AFTER   2  ITERATIONS
 ALL LAKES CONVERGED AFTER   2  ITERATIONS
 ALL LAKES CONVERGED AFTER   2  ITERATIONS
 ALL LAKES CONVERGED AFTER   2  ITERATIONS
 ALL LAKES CONVERGED AFTER   2  ITERATIONS
 ALL LAKES CONVERGED AFTER   2  ITERATIONS
 ALL LAKES CONVERGED AFTER   2  ITERATIONS
 ALL LAKES CONVERGED AFTER   2  ITERATIONS
 ALL LAKES CONVERGED AFTER   2  ITERATIONS
 ALL LAKES CONVERGED AFTER   2  ITERATIONS
 ALL LAKES CONVERGED AFTER   1  ITERATIONS
 ALL LAKES CONVERGED AFTER   2  ITERATIONS
 ALL LAKES CONVERGED AFTER   1  ITERATIONS
 ALL LAKES CONVERGED AFTER   1  ITERATIONS
    32 ITERATIONS FOR TIME STEP  27 IN STRESS PERIOD    1

 MAXIMUM HEAD CHANGE FOR EACH ITERATION:

    HEAD CHANGE   HEAD CHANGE   HEAD CHANGE   HEAD CHANGE   HEAD CHANGE
  LAYER,ROW,COL LAYER,ROW,COL LAYER,ROW,COL LAYER,ROW,COL LAYER,ROW,COL
 ----------------------------------------------------------------------
     0.2790        0.2658        0.2139        0.1206        0.1567    
  (  1, 12,  6) (  4, 10,  6) (  5, 10,  8) (  3,  8, 10) (  3, 10,  8)
     0.6966E-01    0.5479E-01    0.3806E-01    0.4970E-01    0.2299E-01
  (  2,  7,  7) (  5, 10,  8) (  3,  8, 10) (  3, 10,  8) (  3,  8, 10)
     0.2738E-01    0.1437E-01    0.1493E-01    0.7903E-02    0.1025E-01
  (  3,  8,  8) (  5,  9,  9) (  5, 10,  8) (  3,  8, 10) (  3, 10,  8)
     0.4547E-02    0.3569E-02    0.2475E-02    0.3233E-02    0.1506E-02
  (  2,  7,  7) (  5, 10,  8) (  3,  8, 10) (  3, 10,  8) (  3,  8, 10)
     0.1788E-02    0.9343E-03    0.9742E-03    0.5139E-03    0.6674E-03
  (  3,  8,  8) (  5,  9,  9) (  5, 10,  8) (  3,  8, 10) (  3, 10,  8)
     0.3011E-03    0.2313E-03    0.1639E-03    0.2180E-03    0.1081E-03
  (  2,  7,  7) (  5, 10,  8) (  3,  8, 10) (  3, 10,  8) (  2,  7, 10)
     0.1138E-03    0.6486E-04
  (  2,  9,  7) (  5,  9,  9)


 HEAD/DRAWDOWN PRINTOUT FLAG = 0     TOTAL BUDGET PRINTOUT FLAG = 0
 CELL-BY-CELL FLOW TERM FLAG = 1

 OUTPUT FLAGS FOR ALL LAYERS ARE THE SAME:
   HEAD    DRAWDOWN  HEAD  DRAWDOWN
 PRINTOUT  PRINTOUT  SAVE    SAVE
 ----------------------------------
     0         0       0       0


     0  LAKE CELLS ARE DRY.

 PERIOD     1     TIME STEP    27     TIME STEP LENGTH  2.6798E+01
 PERIOD TIME  5.6599E+02     TOTAL SIMULATION TIME  5.6599E+02


                 HYDROLOGIC BUDGET SUMMARIES FOR SIMULATED LAKES
     (ALL FLUID FLUXES ARE VOLUMES ADDED TO THE LAKE DURING PRESENT TIME STEP)
     -------------------------------------------------------------------------
 LAKE   STAGE     PRECIP       EVAP       RUNOFF
   1   127.64  1.9428E+06  1.7251E+06  0.0000E+00

            GROUND WATER            SURFACE WATER
 LAKE    INFLOW     OUTFLOW      INFLOW     OUTFLOW
   1  6.1324E+06  0.0000E+00  0.0000E+00  0.0000E+00

         WATER    CONNECTED LAKE   UPDATED     TIME-STEP          STAGE CHANGE
 LAKE     USE         INFLUX        VOLUME    SURFACE AREA   TIME STEP  CUMULATIVE
   1   0.0000E+00   0.0000E+00   1.5151E+08    6.2500E+06   1.0159E+00  1.7642E+01
 --------------------------------------------------------------------------------



            CUMULATIVE HYDROLOGIC BUDGET SUMMARIES FOR SIMULATED LAKES
     (ALL FLUID FLUXES ARE SUMS OF VOLUMES ADDED TO THE LAKE SINCE INITIAL TIME)
     ---------------------------------------------------------------------------
 LAKE       PRECIP       EVAP       RUNOFF
   1     4.1035E+07  3.6436E+07  0.0000E+00

            GROUND WATER            SURFACE WATER
 LAKE    INFLOW     OUTFLOW      INFLOW     OUTFLOW
   1  1.0567E+08  0.0000E+00  0.0000E+00  0.0000E+00

         WATER    CONNECTED LAKE
 LAKE     USE         INFLUX
   1   0.0000E+00   0.0000E+00
 --------------------------------------------------------------------------------

 
 SOLVING FOR HEAD 
 ALL LAKES CONVERGED AFTER   4  ITERATIONS
 ALL LAKES CONVERGED AFTER   3  ITERATIONS
 ALL LAKES CONVERGED AFTER   3  ITERATIONS
 ALL LAKES CONVERGED AFTER   3  ITERATIONS
 ALL LAKES CONVERGED AFTER   3  ITERATIONS
 ALL LAKES CONVERGED AFTER   3  ITERATIONS
 ALL LAKES CONVERGED AFTER   3  ITERATIONS
 ALL LAKES CONVERGED AFTER   3  ITERATIONS
 ALL LAKES CONVERGED AFTER   3  ITERATIONS
 ALL LAKES CONVERGED AFTER   3  ITERATIONS
 ALL LAKES CONVERGED AFTER   3  ITERATIONS
 ALL LAKES CONVERGED AFTER   3  ITERATIONS
 ALL LAKES CONVERGED AFTER   3  ITERATIONS
 ALL LAKES CONVERGED AFTER   3  ITERATIONS
 ALL LAKES CONVERGED AFTER   2  ITERATIONS
 ALL LAKES CONVERGED AFTER   2  ITERATIONS
 ALL LAKES CONVERGED AFTER   3  ITERATIONS
 ALL LAKES CONVERGED AFTER   3  ITERATIONS
 ALL LAKES CONVERGED AFTER   2  ITERATIONS
 ALL LAKES CONVERGED AFTER   2  ITERATIONS
 ALL LAKES CONVERGED AFTER   2  ITERATIONS
 ALL LAKES CONVERGED AFTER   2  ITERATIONS
 ALL LAKES CONVERGED AFTER   2  ITERATIONS
 ALL LAKES CONVERGED AFTER   2  ITERATIONS
 ALL LAKES CONVERGED AFTER   2  ITERATIONS
 ALL LAKES CONVERGED AFTER   2  ITERATIONS
 ALL LAKES CONVERGED AFTER   2  ITERATIONS
 ALL LAKES CONVERGED AFTER   2  ITERATIONS
 ALL LAKES CONVERGED AFTER   1  ITERATIONS
 ALL LAKES CONVERGED AFTER   2  ITERATIONS
 ALL LAKES CONVERGED AFTER   1  ITERATIONS
 ALL LAKES CONVERGED AFTER   1  ITERATIONS
    32 ITERATIONS FOR TIME STEP  28 IN STRESS PERIOD    1

 MAXIMUM HEAD CHANGE FOR EACH ITERATION:

    HEAD CHANGE   HEAD CHANGE   HEAD CHANGE   HEAD CHANGE   HEAD CHANGE
  LAYER,ROW,COL LAYER,ROW,COL LAYER,ROW,COL LAYER,ROW,COL LAYER,ROW,COL
 ----------------------------------------------------------------------
     0.2527        0.2337        0.2101        0.1187        0.1545    
  (  3,  9,  9) (  4, 10,  6) (  5, 10,  8) (  3,  8, 10) (  3, 10,  8)
     0.6908E-01    0.5457E-01    0.3809E-01    0.4982E-01    0.2317E-01
  (  2,  7,  7) (  5, 10,  8) (  3,  8, 10) (  3, 10,  8) (  3,  8, 10)
     0.2764E-01    0.1458E-01    0.1520E-01    0.8094E-02    0.1051E-01
  (  3,  8,  8) (  5,  9,  9) (  5, 10,  8) (  3,  8, 10) (  3, 10,  8)
     0.4691E-02    0.3704E-02    0.2587E-02    0.3376E-02    0.1571E-02
  (  2,  7,  7) (  5, 10,  8) (  3,  8, 10) (  3, 10,  8) (  2,  8, 11)
     0.1873E-02    0.9879E-03    0.1026E-02    0.5445E-03    0.7174E-03
  (  3,  8,  8) (  5,  9,  9) (  5, 10,  8) (  3,  8, 10) (  3, 10,  8)
     0.3239E-03    0.2451E-03    0.1685E-03    0.2292E-03    0.1084E-03
  (  3,  9, 10) (  5, 10,  8) (  2,  7, 10) (  3, 10,  8) (  2,  7, 11)
     0.1287E-03    0.6573E-04
  (  2,  7,  7) (  5,  9,  9)


 HEAD/DRAWDOWN PRINTOUT FLAG = 0     TOTAL BUDGET PRINTOUT FLAG = 0
 CELL-BY-CELL FLOW TERM FLAG = 1

 OUTPUT FLAGS FOR ALL LAYERS ARE THE SAME:
   HEAD    DRAWDOWN  HEAD  DRAWDOWN
 PRINTOUT  PRINTOUT  SAVE    SAVE
 ----------------------------------
     0         0       0       0


     0  LAKE CELLS ARE DRY.

 PERIOD     1     TIME STEP    28     TIME STEP LENGTH  2.7334E+01
 PERIOD TIME  5.9333E+02     TOTAL SIMULATION TIME  5.9333E+02


                 HYDROLOGIC BUDGET SUMMARIES FOR SIMULATED LAKES
     (ALL FLUID FLUXES ARE VOLUMES ADDED TO THE LAKE DURING PRESENT TIME STEP)
     -------------------------------------------------------------------------
 LAKE   STAGE     PRECIP       EVAP       RUNOFF
   1   128.65  1.9817E+06  1.7596E+06  0.0000E+00

            GROUND WATER            SURFACE WATER
 LAKE    INFLOW     OUTFLOW      INFLOW     OUTFLOW
   1  6.0490E+06  0.0000E+00  0.0000E+00  0.0000E+00

         WATER    CONNECTED LAKE   UPDATED     TIME-STEP          STAGE CHANGE
 LAKE     USE         INFLUX        VOLUME    SURFACE AREA   TIME STEP  CUMULATIVE
   1   0.0000E+00   0.0000E+00   1.5778E+08    6.2500E+06   1.0032E+00  1.8645E+01
 --------------------------------------------------------------------------------



            CUMULATIVE HYDROLOGIC BUDGET SUMMARIES FOR SIMULATED LAKES
     (ALL FLUID FLUXES ARE SUMS OF VOLUMES ADDED TO THE LAKE SINCE INITIAL TIME)
     ---------------------------------------------------------------------------
 LAKE       PRECIP       EVAP       RUNOFF
   1     4.3016E+07  3.8196E+07  0.0000E+00

            GROUND WATER            SURFACE WATER
 LAKE    INFLOW     OUTFLOW      INFLOW     OUTFLOW
   1  1.1172E+08  0.0000E+00  0.0000E+00  0.0000E+00

         WATER    CONNECTED LAKE
 LAKE     USE         INFLUX
   1   0.0000E+00   0.0000E+00
 --------------------------------------------------------------------------------

 
 SOLVING FOR HEAD 
 ALL LAKES CONVERGED AFTER   3  ITERATIONS
 ALL LAKES CONVERGED AFTER   3  ITERATIONS
 ALL LAKES CONVERGED AFTER   3  ITERATIONS
 ALL LAKES CONVERGED AFTER   3  ITERATIONS
 ALL LAKES CONVERGED AFTER   3  ITERATIONS
 ALL LAKES CONVERGED AFTER   3  ITERATIONS
 ALL LAKES CONVERGED AFTER   3  ITERATIONS
 ALL LAKES CONVERGED AFTER   3  ITERATIONS
 ALL LAKES CONVERGED AFTER   3  ITERATIONS
 ALL LAKES CONVERGED AFTER   3  ITERATIONS
 ALL LAKES CONVERGED AFTER   3  ITERATIONS
 ALL LAKES CONVERGED AFTER   3  ITERATIONS
 ALL LAKES CONVERGED AFTER   3  ITERATIONS
 ALL LAKES CONVERGED AFTER   3  ITERATIONS
 ALL LAKES CONVERGED AFTER   2  ITERATIONS
 ALL LAKES CONVERGED AFTER   3  ITERATIONS
 ALL LAKES CONVERGED AFTER   2  ITERATIONS
 ALL LAKES CONVERGED AFTER   2  ITERATIONS
 ALL LAKES CONVERGED AFTER   2  ITERATIONS
 ALL LAKES CONVERGED AFTER   2  ITERATIONS
 ALL LAKES CONVERGED AFTER   2  ITERATIONS
 ALL LAKES CONVERGED AFTER   2  ITERATIONS
 ALL LAKES CONVERGED AFTER   2  ITERATIONS
 ALL LAKES CONVERGED AFTER   2  ITERATIONS
 ALL LAKES CONVERGED AFTER   2  ITERATIONS
 ALL LAKES CONVERGED AFTER   2  ITERATIONS
 ALL LAKES CONVERGED AFTER   2  ITERATIONS
 ALL LAKES CONVERGED AFTER   2  ITERATIONS
 ALL LAKES CONVERGED AFTER   1  ITERATIONS
 ALL LAKES CONVERGED AFTER   2  ITERATIONS
 ALL LAKES CONVERGED AFTER   1  ITERATIONS
 ALL LAKES CONVERGED AFTER   1  ITERATIONS
    32 ITERATIONS FOR TIME STEP  29 IN STRESS PERIOD    1

 MAXIMUM HEAD CHANGE FOR EACH ITERATION:

    HEAD CHANGE   HEAD CHANGE   HEAD CHANGE   HEAD CHANGE   HEAD CHANGE
  LAYER,ROW,COL LAYER,ROW,COL LAYER,ROW,COL LAYER,ROW,COL LAYER,ROW,COL
 ----------------------------------------------------------------------
     0.2459        0.2163        0.2053        0.1165        0.1518    
  (  3,  9,  9) (  4,  6,  8) (  5, 10,  8) (  3,  8, 10) (  3, 10,  8)
     0.6825E-01    0.5413E-01    0.3799E-01    0.4978E-01    0.2330E-01
  (  2,  7,  7) (  5, 10,  8) (  3,  8, 10) (  3, 10,  8) (  3,  8, 10)
     0.2781E-01    0.1474E-01    0.1542E-01    0.8256E-02    0.1075E-01
  (  3,  8,  8) (  5,  9,  9) (  5, 10,  8) (  3,  8, 10) (  3, 10,  8)
     0.4815E-02    0.3827E-02    0.2679E-02    0.3509E-02    0.1646E-02
  (  2,  7,  7) (  5, 10,  8) (  3,  8, 10) (  3, 10,  8) (  3,  8, 10)
     0.1966E-02    0.1042E-02    0.1080E-02    0.5846E-03    0.7573E-03
  (  3,  8,  8) (  5,  9,  9) (  5, 10,  8) (  3,  8, 10) (  3, 10,  8)
     0.3401E-03    0.2654E-03    0.1846E-03    0.2383E-03    0.1204E-03
  (  2,  7,  7) (  5, 10,  8) (  3,  8, 10) (  5, 10,  8) (  3,  8, 10)
     0.1404E-03    0.8599E-04
  (  3,  8,  8) (  5,  9,  9)


 HEAD/DRAWDOWN PRINTOUT FLAG = 0     TOTAL BUDGET PRINTOUT FLAG = 0
 CELL-BY-CELL FLOW TERM FLAG = 1

 OUTPUT FLAGS FOR ALL LAYERS ARE THE SAME:
   HEAD    DRAWDOWN  HEAD  DRAWDOWN
 PRINTOUT  PRINTOUT  SAVE    SAVE
 ----------------------------------
     0         0       0       0


     0  LAKE CELLS ARE DRY.

 PERIOD     1     TIME STEP    29     TIME STEP LENGTH  2.7880E+01
 PERIOD TIME  6.2121E+02     TOTAL SIMULATION TIME  6.2121E+02


                 HYDROLOGIC BUDGET SUMMARIES FOR SIMULATED LAKES
     (ALL FLUID FLUXES ARE VOLUMES ADDED TO THE LAKE DURING PRESENT TIME STEP)
     -------------------------------------------------------------------------
 LAKE   STAGE     PRECIP       EVAP       RUNOFF
   1   129.63  2.0213E+06  1.7948E+06  0.0000E+00

            GROUND WATER            SURFACE WATER
 LAKE    INFLOW     OUTFLOW      INFLOW     OUTFLOW
   1  5.9372E+06  0.0000E+00  0.0000E+00  0.0000E+00

         WATER    CONNECTED LAKE   UPDATED     TIME-STEP          STAGE CHANGE
 LAKE     USE         INFLUX        VOLUME    SURFACE AREA   TIME STEP  CUMULATIVE
   1   0.0000E+00   0.0000E+00   1.6394E+08    6.2500E+06   9.8605E-01  1.9631E+01
 --------------------------------------------------------------------------------



            CUMULATIVE HYDROLOGIC BUDGET SUMMARIES FOR SIMULATED LAKES
     (ALL FLUID FLUXES ARE SUMS OF VOLUMES ADDED TO THE LAKE SINCE INITIAL TIME)
     ---------------------------------------------------------------------------
 LAKE       PRECIP       EVAP       RUNOFF
   1     4.5038E+07  3.9990E+07  0.0000E+00

            GROUND WATER            SURFACE WATER
 LAKE    INFLOW     OUTFLOW      INFLOW     OUTFLOW
   1  1.1766E+08  0.0000E+00  0.0000E+00  0.0000E+00

         WATER    CONNECTED LAKE
 LAKE     USE         INFLUX
   1   0.0000E+00   0.0000E+00
 --------------------------------------------------------------------------------

 
 SOLVING FOR HEAD 
 ALL LAKES CONVERGED AFTER   3  ITERATIONS
 ALL LAKES CONVERGED AFTER   4  ITERATIONS
 ALL LAKES CONVERGED AFTER   3  ITERATIONS
 ALL LAKES CONVERGED AFTER   3  ITERATIONS
 ALL LAKES CONVERGED AFTER   3  ITERATIONS
 ALL LAKES CONVERGED AFTER   3  ITERATIONS
 ALL LAKES CONVERGED AFTER   3  ITERATIONS
 ALL LAKES CONVERGED AFTER   3  ITERATIONS
 ALL LAKES CONVERGED AFTER   3  ITERATIONS
 ALL LAKES CONVERGED AFTER   3  ITERATIONS
 ALL LAKES CONVERGED AFTER   3  ITERATIONS
 ALL LAKES CONVERGED AFTER   3  ITERATIONS
 ALL LAKES CONVERGED AFTER   3  ITERATIONS
 ALL LAKES CONVERGED AFTER   3  ITERATIONS
 ALL LAKES CONVERGED AFTER   2  ITERATIONS
 ALL LAKES CONVERGED AFTER   3  ITERATIONS
 ALL LAKES CONVERGED AFTER   2  ITERATIONS
 ALL LAKES CONVERGED AFTER   3  ITERATIONS
 ALL LAKES CONVERGED AFTER   2  ITERATIONS
 ALL LAKES CONVERGED AFTER   3  ITERATIONS
 ALL LAKES CONVERGED AFTER   2  ITERATIONS
 ALL LAKES CONVERGED AFTER   2  ITERATIONS
 ALL LAKES CONVERGED AFTER   2  ITERATIONS
 ALL LAKES CONVERGED AFTER   2  ITERATIONS
 ALL LAKES CONVERGED AFTER   2  ITERATIONS
 ALL LAKES CONVERGED AFTER   2  ITERATIONS
 ALL LAKES CONVERGED AFTER   2  ITERATIONS
 ALL LAKES CONVERGED AFTER   2  ITERATIONS
 ALL LAKES CONVERGED AFTER   1  ITERATIONS
 ALL LAKES CONVERGED AFTER   2  ITERATIONS
 ALL LAKES CONVERGED AFTER   1  ITERATIONS
 ALL LAKES CONVERGED AFTER   1  ITERATIONS
    32 ITERATIONS FOR TIME STEP  30 IN STRESS PERIOD    1

 MAXIMUM HEAD CHANGE FOR EACH ITERATION:

    HEAD CHANGE   HEAD CHANGE   HEAD CHANGE   HEAD CHANGE   HEAD CHANGE
  LAYER,ROW,COL LAYER,ROW,COL LAYER,ROW,COL LAYER,ROW,COL LAYER,ROW,COL
 ----------------------------------------------------------------------
     0.2381        0.2040        0.1999        0.1139        0.1486    
  (  3,  9,  9) (  4,  6,  8) (  5, 10,  8) (  3,  8, 10) (  3, 10,  8)
     0.6722E-01    0.5353E-01    0.3774E-01    0.4954E-01    0.2332E-01
  (  2,  7,  7) (  5, 10,  8) (  3,  8, 10) (  3, 10,  8) (  3,  8, 10)
     0.2788E-01    0.1484E-01    0.1557E-01    0.8397E-02    0.1094E-01
  (  3,  8,  8) (  5,  9,  9) (  5, 10,  8) (  3,  8, 10) (  3, 10,  8)
     0.4947E-02    0.3930E-02    0.2771E-02    0.3622E-02    0.1717E-02
  (  2,  7,  7) (  5, 10,  8) (  3,  8, 10) (  3, 10,  8) (  3,  8, 10)
     0.2051E-02    0.1086E-02    0.1149E-02    0.6148E-03    0.8070E-03
  (  3,  8,  8) (  5,  9,  9) (  5, 10,  8) (  3,  8, 10) (  3, 10,  8)
     0.3678E-03    0.2887E-03    0.2090E-03    0.2563E-03    0.1204E-03
  (  2,  7,  7) (  5, 10,  8) (  2,  8, 11) (  4, 10,  8) (  3,  8, 10)
     0.1404E-03    0.8600E-04
  (  3,  8,  8) (  5,  9,  9)


 HEAD/DRAWDOWN PRINTOUT FLAG = 1     TOTAL BUDGET PRINTOUT FLAG = 1
 CELL-BY-CELL FLOW TERM FLAG = 1

 OUTPUT FLAGS FOR EACH LAYER:
          HEAD    DRAWDOWN  HEAD  DRAWDOWN
 LAYER  PRINTOUT  PRINTOUT  SAVE    SAVE
 -----------------------------------------
    1       0         0       0       0
    2       0         0       0       0
    3       0         0       0       0
    4       0         0       0       0
    5       1         0       0       0


     0  LAKE CELLS ARE DRY.

 PERIOD     1     TIME STEP    30     TIME STEP LENGTH  2.8438E+01
 PERIOD TIME  6.4965E+02     TOTAL SIMULATION TIME  6.4965E+02


                 HYDROLOGIC BUDGET SUMMARIES FOR SIMULATED LAKES
     (ALL FLUID FLUXES ARE VOLUMES ADDED TO THE LAKE DURING PRESENT TIME STEP)
     -------------------------------------------------------------------------
 LAKE   STAGE     PRECIP       EVAP       RUNOFF
   1   130.60  2.0617E+06  1.8307E+06  0.0000E+00

            GROUND WATER            SURFACE WATER
 LAKE    INFLOW     OUTFLOW      INFLOW     OUTFLOW
   1  5.8035E+06  0.0000E+00  0.0000E+00  0.0000E+00

         WATER    CONNECTED LAKE   UPDATED     TIME-STEP          STAGE CHANGE
 LAKE     USE         INFLUX        VOLUME    SURFACE AREA   TIME STEP  CUMULATIVE
   1   0.0000E+00   0.0000E+00   1.6998E+08    6.2500E+06   9.6539E-01  2.0597E+01
 --------------------------------------------------------------------------------



            CUMULATIVE HYDROLOGIC BUDGET SUMMARIES FOR SIMULATED LAKES
     (ALL FLUID FLUXES ARE SUMS OF VOLUMES ADDED TO THE LAKE SINCE INITIAL TIME)
     ---------------------------------------------------------------------------
 LAKE       PRECIP       EVAP       RUNOFF
   1     4.7099E+07  4.1821E+07  0.0000E+00

            GROUND WATER            SURFACE WATER
 LAKE    INFLOW     OUTFLOW      INFLOW     OUTFLOW
   1  1.2346E+08  0.0000E+00  0.0000E+00  0.0000E+00

         WATER    CONNECTED LAKE
 LAKE     USE         INFLUX
   1   0.0000E+00   0.0000E+00
 --------------------------------------------------------------------------------

1
              HEAD IN LAYER   5 AT END OF TIME STEP  30 IN STRESS PERIOD    1
  ---------------------------------------------------------------------------

          1      2      3      4      5      6      7      8      9     10
 .........................................................................
   1   160.0  158.9  157.3  155.8  154.2  152.7  151.5  150.8  150.0  149.2
   2   160.0  158.5  156.5  154.8  153.0  151.4  150.2  149.4  148.6  147.8
   3   160.0  158.2  155.8  153.7  151.7  149.8  148.4  147.6  146.8  146.0
   4   160.0  158.0  155.3  152.8  150.5  148.2  146.7  145.8  145.0  144.3
   5   160.0  157.8  154.8  152.1  149.3  146.3  144.3  143.2  142.4  141.8
   6   160.0  157.7  154.5  151.4  147.9  143.5  139.8  138.4  137.6  137.3
   7   160.0  157.6  154.3  151.0  146.9  140.7  131.2  130.9  130.8  130.8
   8   160.0  157.6  154.2  150.8  146.5  139.9  130.9  130.6  130.6  130.6
   9   160.0  157.6  154.2  150.7  146.4  139.6  130.9  130.6  130.6  130.6
  10   160.0  157.6  154.2  150.8  146.5  139.9  130.9  130.6  130.6  130.6
  11   160.0  157.6  154.3  151.0  146.9  140.7  131.2  130.9  130.8  130.8
  12   160.0  157.7  154.5  151.4  147.9  143.5  139.8  138.4  137.6  137.3
  13   160.0  157.8  154.8  152.1  149.3  146.3  144.3  143.2  142.4  141.8
  14   160.0  158.0  155.3  152.8  150.5  148.2  146.7  145.8  145.0  144.3
  15   160.0  158.2  155.8  153.7  151.7  149.8  148.4  147.6  146.8  146.0
  16   160.0  158.5  156.5  154.8  153.0  151.4  150.2  149.4  148.6  147.8
  17   160.0  158.9  157.3  155.8  154.2  152.7  151.5  150.8  150.0  149.2
1
              HEAD IN LAYER   5 AT END OF TIME STEP  30 IN STRESS PERIOD    1
  ---------------------------------------------------------------------------

         11     12     13     14     15     16     17
 ....................................................
   1   148.5  147.3  145.8  144.2  142.7  141.1  140.0
   2   147.1  146.0  144.5  143.1  141.7  140.5  140.0
   3   145.3  144.4  143.1  142.0  140.9  140.1  140.0
   4   143.7  142.9  142.0  141.1  140.4  139.9  140.0
   5   141.4  141.2  140.9  140.4  139.9  139.7  140.0
   6   137.5  138.7  139.6  139.8  139.6  139.6  140.0
   7   131.0  136.5  138.8  139.4  139.5  139.6  140.0
   8   130.8  135.9  138.5  139.3  139.4  139.5  140.0
   9   130.8  135.7  138.4  139.2  139.4  139.5  140.0
  10   130.8  135.9  138.5  139.3  139.4  139.5  140.0
  11   131.0  136.5  138.8  139.4  139.5  139.6  140.0
  12   137.5  138.7  139.6  139.8  139.6  139.6  140.0
  13   141.4  141.2  140.9  140.4  139.9  139.7  140.0
  14   143.7  142.9  142.0  141.1  140.4  139.9  140.0
  15   145.3  144.4  143.1  142.0  140.9  140.1  140.0
  16   147.1  146.0  144.5  143.1  141.7  140.5  140.0
  17   148.5  147.3  145.8  144.2  142.7  141.1  140.0
1
  VOLUMETRIC BUDGET FOR ENTIRE MODEL AT END OF TIME STEP 30 IN STRESS PERIOD   1
  ------------------------------------------------------------------------------

     CUMULATIVE VOLUMES      L**3       RATES FOR THIS TIME STEP      L**3/T
     ------------------                 ------------------------

           IN:                                      IN:
           ---                                      ---
             STORAGE =       31346.7051               STORAGE =           0.0000
       CONSTANT HEAD =   541894016.0000         CONSTANT HEAD =      228070.5781
                  ET =           0.0000                    ET =           0.0000
            RECHARGE =  1130384768.0000              RECHARGE =     1740000.0000
     SPECIFIED FLOWS =           0.0000       SPECIFIED FLOWS =           0.0000
       LAKE  SEEPAGE =           0.0000         LAKE  SEEPAGE =           0.0000

            TOTAL IN =  1672310144.0000              TOTAL IN =     1968070.6250

          OUT:                                     OUT:
          ----                                     ----
             STORAGE =   940360064.0000               STORAGE =      186824.4531
       CONSTANT HEAD =     1155546.0000         CONSTANT HEAD =        4483.0034
                  ET =   607319552.0000                    ET =     1572681.8750
            RECHARGE =           0.0000              RECHARGE =           0.0000
     SPECIFIED FLOWS =           0.0000       SPECIFIED FLOWS =           0.0000
       LAKE  SEEPAGE =   123464104.0000         LAKE  SEEPAGE =      204077.2344

           TOTAL OUT =  1672299264.0000             TOTAL OUT =     1968066.6250

            IN - OUT =       10880.0000              IN - OUT =           4.0000

 PERCENT DISCREPANCY =           0.00     PERCENT DISCREPANCY =           0.00






          TIME SUMMARY AT END OF TIME STEP  30 IN STRESS PERIOD    1
                    SECONDS     MINUTES      HOURS       DAYS        YEARS
                    -----------------------------------------------------------
   TIME STEP LENGTH 2.45703E+06  40951.      682.51      28.438     7.78587E-02
 STRESS PERIOD TIME 5.61295E+07 9.35491E+05  15592.      649.65      1.7786    
         TOTAL TIME 5.61295E+07 9.35491E+05  15592.      649.65      1.7786    
1
 
 SOLVING FOR HEAD 
 ALL LAKES CONVERGED AFTER   4  ITERATIONS
 ALL LAKES CONVERGED AFTER   3  ITERATIONS
 ALL LAKES CONVERGED AFTER   3  ITERATIONS
 ALL LAKES CONVERGED AFTER   4  ITERATIONS
 ALL LAKES CONVERGED AFTER   3  ITERATIONS
 ALL LAKES CONVERGED AFTER   3  ITERATIONS
 ALL LAKES CONVERGED AFTER   4  ITERATIONS
 ALL LAKES CONVERGED AFTER   3  ITERATIONS
 ALL LAKES CONVERGED AFTER   2  ITERATIONS
 ALL LAKES CONVERGED AFTER   3  ITERATIONS
 ALL LAKES CONVERGED AFTER   2  ITERATIONS
 ALL LAKES CONVERGED AFTER   3  ITERATIONS
 ALL LAKES CONVERGED AFTER   3  ITERATIONS
 ALL LAKES CONVERGED AFTER   3  ITERATIONS
 ALL LAKES CONVERGED AFTER   3  ITERATIONS
 ALL LAKES CONVERGED AFTER   3  ITERATIONS
 ALL LAKES CONVERGED AFTER   2  ITERATIONS
 ALL LAKES CONVERGED AFTER   2  ITERATIONS
 ALL LAKES CONVERGED AFTER   2  ITERATIONS
 ALL LAKES CONVERGED AFTER   2  ITERATIONS
 ALL LAKES CONVERGED AFTER   2  ITERATIONS
 ALL LAKES CONVERGED AFTER   2  ITERATIONS
 ALL LAKES CONVERGED AFTER   2  ITERATIONS
 ALL LAKES CONVERGED AFTER   2  ITERATIONS
 ALL LAKES CONVERGED AFTER   2  ITERATIONS
 ALL LAKES CONVERGED AFTER   2  ITERATIONS
 ALL LAKES CONVERGED AFTER   2  ITERATIONS
 ALL LAKES CONVERGED AFTER   2  ITERATIONS
 ALL LAKES CONVERGED AFTER   1  ITERATIONS
 ALL LAKES CONVERGED AFTER   2  ITERATIONS
 ALL LAKES CONVERGED AFTER   1  ITERATIONS
 ALL LAKES CONVERGED AFTER   1  ITERATIONS
    32 ITERATIONS FOR TIME STEP  31 IN STRESS PERIOD    1

 MAXIMUM HEAD CHANGE FOR EACH ITERATION:

    HEAD CHANGE   HEAD CHANGE   HEAD CHANGE   HEAD CHANGE   HEAD CHANGE
  LAYER,ROW,COL LAYER,ROW,COL LAYER,ROW,COL LAYER,ROW,COL LAYER,ROW,COL
 ----------------------------------------------------------------------
     0.2296        0.1934        0.1939        0.1110        0.1450    
  (  3,  9,  9) (  4,  6,  8) (  5, 10,  8) (  3,  8, 10) (  3, 10,  8)
     0.6599E-01    0.5276E-01    0.3739E-01    0.4915E-01    0.2328E-01
  (  2,  7,  7) (  5, 10,  8) (  3,  8, 10) (  3, 10,  8) (  3,  8, 10)
     0.2786E-01    0.1491E-01    0.1569E-01    0.8498E-02    0.1109E-01
  (  3,  8,  8) (  5,  9,  9) (  5, 10,  8) (  3,  8, 10) (  3, 10,  8)
     0.5044E-02    0.4011E-02    0.2842E-02    0.3757E-02    0.1787E-02
  (  2,  7,  7) (  5, 10,  8) (  3,  8, 10) (  3, 10,  8) (  3,  8, 10)
     0.2124E-02    0.1139E-02    0.1192E-02    0.6551E-03    0.8563E-03
  (  3, 10, 10) (  5,  9,  9) (  5, 10,  8) (  3,  8, 10) (  3, 10,  8)
     0.3868E-03    0.3101E-03    0.2155E-03    0.2853E-03    0.1404E-03
  (  2,  7,  7) (  5, 10,  8) (  3,  8, 10) (  3, 10,  8) (  3,  8, 10)
     0.1590E-03    0.8261E-04
  (  3,  8,  8) (  4, 10, 11)


 HEAD/DRAWDOWN PRINTOUT FLAG = 0     TOTAL BUDGET PRINTOUT FLAG = 0
 CELL-BY-CELL FLOW TERM FLAG = 1

 OUTPUT FLAGS FOR ALL LAYERS ARE THE SAME:
   HEAD    DRAWDOWN  HEAD  DRAWDOWN
 PRINTOUT  PRINTOUT  SAVE    SAVE
 ----------------------------------
     0         0       0       0


     0  LAKE CELLS ARE DRY.

 PERIOD     1     TIME STEP    31     TIME STEP LENGTH  2.9007E+01
 PERIOD TIME  6.7865E+02     TOTAL SIMULATION TIME  6.7865E+02


                 HYDROLOGIC BUDGET SUMMARIES FOR SIMULATED LAKES
     (ALL FLUID FLUXES ARE VOLUMES ADDED TO THE LAKE DURING PRESENT TIME STEP)
     -------------------------------------------------------------------------
 LAKE   STAGE     PRECIP       EVAP       RUNOFF
   1   131.54  2.1030E+06  1.8673E+06  0.0000E+00

            GROUND WATER            SURFACE WATER
 LAKE    INFLOW     OUTFLOW      INFLOW     OUTFLOW
   1  5.6527E+06  0.0000E+00  0.0000E+00  0.0000E+00

         WATER    CONNECTED LAKE   UPDATED     TIME-STEP          STAGE CHANGE
 LAKE     USE         INFLUX        VOLUME    SURFACE AREA   TIME STEP  CUMULATIVE
   1   0.0000E+00   0.0000E+00   1.7587E+08    6.2500E+06   9.4198E-01  2.1539E+01
 --------------------------------------------------------------------------------



            CUMULATIVE HYDROLOGIC BUDGET SUMMARIES FOR SIMULATED LAKES
     (ALL FLUID FLUXES ARE SUMS OF VOLUMES ADDED TO THE LAKE SINCE INITIAL TIME)
     ---------------------------------------------------------------------------
 LAKE       PRECIP       EVAP       RUNOFF
   1     4.9202E+07  4.3688E+07  0.0000E+00

            GROUND WATER            SURFACE WATER
 LAKE    INFLOW     OUTFLOW      INFLOW     OUTFLOW
   1  1.2912E+08  0.0000E+00  0.0000E+00  0.0000E+00

         WATER    CONNECTED LAKE
 LAKE     USE         INFLUX
   1   0.0000E+00   0.0000E+00
 --------------------------------------------------------------------------------

 
 SOLVING FOR HEAD 
 ALL LAKES CONVERGED AFTER   3  ITERATIONS
 ALL LAKES CONVERGED AFTER   3  ITERATIONS
 ALL LAKES CONVERGED AFTER   3  ITERATIONS
 ALL LAKES CONVERGED AFTER   3  ITERATIONS
 ALL LAKES CONVERGED AFTER   3  ITERATIONS
 ALL LAKES CONVERGED AFTER   3  ITERATIONS
 ALL LAKES CONVERGED AFTER   3  ITERATIONS
 ALL LAKES CONVERGED AFTER   3  ITERATIONS
 ALL LAKES CONVERGED AFTER   2  ITERATIONS
 ALL LAKES CONVERGED AFTER   3  ITERATIONS
 ALL LAKES CONVERGED AFTER   2  ITERATIONS
 ALL LAKES CONVERGED AFTER   3  ITERATIONS
 ALL LAKES CONVERGED AFTER   3  ITERATIONS
 ALL LAKES CONVERGED AFTER   3  ITERATIONS
 ALL LAKES CONVERGED AFTER   2  ITERATIONS
 ALL LAKES CONVERGED AFTER   3  ITERATIONS
 ALL LAKES CONVERGED AFTER   3  ITERATIONS
 ALL LAKES CONVERGED AFTER   2  ITERATIONS
 ALL LAKES CONVERGED AFTER   2  ITERATIONS
 ALL LAKES CONVERGED AFTER   2  ITERATIONS
 ALL LAKES CONVERGED AFTER   2  ITERATIONS
 ALL LAKES CONVERGED AFTER   2  ITERATIONS
 ALL LAKES CONVERGED AFTER   2  ITERATIONS
 ALL LAKES CONVERGED AFTER   2  ITERATIONS
 ALL LAKES CONVERGED AFTER   2  ITERATIONS
 ALL LAKES CONVERGED AFTER   2  ITERATIONS
 ALL LAKES CONVERGED AFTER   2  ITERATIONS
 ALL LAKES CONVERGED AFTER   2  ITERATIONS
 ALL LAKES CONVERGED AFTER   1  ITERATIONS
 ALL LAKES CONVERGED AFTER   2  ITERATIONS
 ALL LAKES CONVERGED AFTER   1  ITERATIONS
 ALL LAKES CONVERGED AFTER   1  ITERATIONS
    32 ITERATIONS FOR TIME STEP  32 IN STRESS PERIOD    1

 MAXIMUM HEAD CHANGE FOR EACH ITERATION:

    HEAD CHANGE   HEAD CHANGE   HEAD CHANGE   HEAD CHANGE   HEAD CHANGE
  LAYER,ROW,COL LAYER,ROW,COL LAYER,ROW,COL LAYER,ROW,COL LAYER,ROW,COL
 ----------------------------------------------------------------------
     0.2207        0.1839        0.1876        0.1079        0.1411    
  (  3,  9,  9) (  4,  6,  8) (  5, 10,  8) (  3,  8, 10) (  3, 10,  8)
     0.6461E-01    0.5184E-01    0.3692E-01    0.4861E-01    0.2316E-01
  (  2,  7,  7) (  5, 10,  8) (  3,  8, 10) (  3, 10,  8) (  3,  8, 10)
     0.2775E-01    0.1491E-01    0.1573E-01    0.8589E-02    0.1121E-01
  (  3,  8,  8) (  5,  9,  9) (  5, 10,  8) (  3,  8, 10) (  3, 10,  8)
     0.5139E-02    0.4110E-02    0.2924E-02    0.3851E-02    0.1837E-02
  (  2,  7,  7) (  5, 10,  8) (  3,  8, 10) (  3, 10,  8) (  3,  8, 10)
     0.2191E-02    0.1182E-02    0.1250E-02    0.6786E-03    0.8769E-03
  (  3,  8,  8) (  5,  9,  9) (  5, 10,  8) (  2,  8, 11) (  3, 10,  8)
     0.4073E-03    0.3279E-03    0.2354E-03    0.3030E-03    0.1505E-03
  (  3,  9, 10) (  5,  9,  7) (  3,  8, 10) (  3, 10,  8) (  3,  8, 10)
     0.1686E-03    0.9727E-04
  (  3,  8,  8) (  5,  9,  9)


 HEAD/DRAWDOWN PRINTOUT FLAG = 0     TOTAL BUDGET PRINTOUT FLAG = 0
 CELL-BY-CELL FLOW TERM FLAG = 1

 OUTPUT FLAGS FOR ALL LAYERS ARE THE SAME:
   HEAD    DRAWDOWN  HEAD  DRAWDOWN
 PRINTOUT  PRINTOUT  SAVE    SAVE
 ----------------------------------
     0         0       0       0


     0  LAKE CELLS ARE DRY.

 PERIOD     1     TIME STEP    32     TIME STEP LENGTH  2.9587E+01
 PERIOD TIME  7.0824E+02     TOTAL SIMULATION TIME  7.0824E+02


                 HYDROLOGIC BUDGET SUMMARIES FOR SIMULATED LAKES
     (ALL FLUID FLUXES ARE VOLUMES ADDED TO THE LAKE DURING PRESENT TIME STEP)
     -------------------------------------------------------------------------
 LAKE   STAGE     PRECIP       EVAP       RUNOFF
   1   132.45  2.1450E+06  1.9046E+06  0.0000E+00

            GROUND WATER            SURFACE WATER
 LAKE    INFLOW     OUTFLOW      INFLOW     OUTFLOW
   1  5.4886E+06  0.0000E+00  0.0000E+00  0.0000E+00

         WATER    CONNECTED LAKE   UPDATED     TIME-STEP          STAGE CHANGE
 LAKE     USE         INFLUX        VOLUME    SURFACE AREA   TIME STEP  CUMULATIVE
   1   0.0000E+00   0.0000E+00   1.8159E+08    6.2500E+06   9.1645E-01  2.2455E+01
 --------------------------------------------------------------------------------



            CUMULATIVE HYDROLOGIC BUDGET SUMMARIES FOR SIMULATED LAKES
     (ALL FLUID FLUXES ARE SUMS OF VOLUMES ADDED TO THE LAKE SINCE INITIAL TIME)
     ---------------------------------------------------------------------------
 LAKE       PRECIP       EVAP       RUNOFF
   1     5.1347E+07  4.5593E+07  0.0000E+00

            GROUND WATER            SURFACE WATER
 LAKE    INFLOW     OUTFLOW      INFLOW     OUTFLOW
   1  1.3461E+08  0.0000E+00  0.0000E+00  0.0000E+00

         WATER    CONNECTED LAKE
 LAKE     USE         INFLUX
   1   0.0000E+00   0.0000E+00
 --------------------------------------------------------------------------------

 
 SOLVING FOR HEAD 
 ALL LAKES CONVERGED AFTER   4  ITERATIONS
 ALL LAKES CONVERGED AFTER   4  ITERATIONS
 ALL LAKES CONVERGED AFTER   3  ITERATIONS
 ALL LAKES CONVERGED AFTER   3  ITERATIONS
 ALL LAKES CONVERGED AFTER   3  ITERATIONS
 ALL LAKES CONVERGED AFTER   3  ITERATIONS
 ALL LAKES CONVERGED AFTER   3  ITERATIONS
 ALL LAKES CONVERGED AFTER   3  ITERATIONS
 ALL LAKES CONVERGED AFTER   3  ITERATIONS
 ALL LAKES CONVERGED AFTER   3  ITERATIONS
 ALL LAKES CONVERGED AFTER   2  ITERATIONS
 ALL LAKES CONVERGED AFTER   3  ITERATIONS
 ALL LAKES CONVERGED AFTER   2  ITERATIONS
 ALL LAKES CONVERGED AFTER   3  ITERATIONS
 ALL LAKES CONVERGED AFTER   2  ITERATIONS
 ALL LAKES CONVERGED AFTER   3  ITERATIONS
 ALL LAKES CONVERGED AFTER   2  ITERATIONS
 ALL LAKES CONVERGED AFTER   2  ITERATIONS
 ALL LAKES CONVERGED AFTER   2  ITERATIONS
 ALL LAKES CONVERGED AFTER   2  ITERATIONS
 ALL LAKES CONVERGED AFTER   2  ITERATIONS
 ALL LAKES CONVERGED AFTER   2  ITERATIONS
 ALL LAKES CONVERGED AFTER   2  ITERATIONS
 ALL LAKES CONVERGED AFTER   2  ITERATIONS
 ALL LAKES CONVERGED AFTER   2  ITERATIONS
 ALL LAKES CONVERGED AFTER   2  ITERATIONS
 ALL LAKES CONVERGED AFTER   2  ITERATIONS
 ALL LAKES CONVERGED AFTER   2  ITERATIONS
 ALL LAKES CONVERGED AFTER   1  ITERATIONS
 ALL LAKES CONVERGED AFTER   2  ITERATIONS
 ALL LAKES CONVERGED AFTER   1  ITERATIONS
 ALL LAKES CONVERGED AFTER   1  ITERATIONS
    32 ITERATIONS FOR TIME STEP  33 IN STRESS PERIOD    1

 MAXIMUM HEAD CHANGE FOR EACH ITERATION:

    HEAD CHANGE   HEAD CHANGE   HEAD CHANGE   HEAD CHANGE   HEAD CHANGE
  LAYER,ROW,COL LAYER,ROW,COL LAYER,ROW,COL LAYER,ROW,COL LAYER,ROW,COL
 ----------------------------------------------------------------------
     0.2115        0.1752        0.1809        0.1046        0.1370    
  (  3,  9,  9) (  4,  6,  8) (  5, 10,  8) (  3,  8, 10) (  3, 10,  8)
     0.6308E-01    0.5080E-01    0.3635E-01    0.4794E-01    0.2298E-01
  (  2,  7,  7) (  5, 10,  8) (  3,  8, 10) (  3, 10,  8) (  3,  8, 10)
     0.2755E-01    0.1488E-01    0.1574E-01    0.8658E-02    0.1131E-01
  (  3,  8,  8) (  5,  9,  9) (  5, 10,  8) (  3,  8, 10) (  3, 10,  8)
     0.5190E-02    0.4184E-02    0.2995E-02    0.3938E-02    0.1898E-02
  (  2,  7,  7) (  5, 10,  8) (  3,  8, 10) (  3, 10,  8) (  3,  8, 10)
     0.2276E-02    0.1226E-02    0.1300E-02    0.7154E-03    0.9262E-03
  (  3,  8,  8) (  5,  9,  9) (  5, 10,  8) (  3,  8, 10) (  3, 10,  8)
     0.4254E-03    0.3446E-03    0.2461E-03    0.3129E-03    0.1705E-03
  (  2,  7,  7) (  5, 10,  8) (  3,  8, 10) (  3, 10,  8) (  3,  8, 10)
     0.1966E-03    0.9924E-04
  (  3,  8,  8) (  5,  9,  9)


 HEAD/DRAWDOWN PRINTOUT FLAG = 0     TOTAL BUDGET PRINTOUT FLAG = 0
 CELL-BY-CELL FLOW TERM FLAG = 1

 OUTPUT FLAGS FOR ALL LAYERS ARE THE SAME:
   HEAD    DRAWDOWN  HEAD  DRAWDOWN
 PRINTOUT  PRINTOUT  SAVE    SAVE
 ----------------------------------
     0         0       0       0


     0  LAKE CELLS ARE DRY.

 PERIOD     1     TIME STEP    33     TIME STEP LENGTH  3.0179E+01
 PERIOD TIME  7.3842E+02     TOTAL SIMULATION TIME  7.3842E+02


                 HYDROLOGIC BUDGET SUMMARIES FOR SIMULATED LAKES
     (ALL FLUID FLUXES ARE VOLUMES ADDED TO THE LAKE DURING PRESENT TIME STEP)
     -------------------------------------------------------------------------
 LAKE   STAGE     PRECIP       EVAP       RUNOFF
   1   133.34  2.1879E+06  1.9427E+06  0.0000E+00

            GROUND WATER            SURFACE WATER
 LAKE    INFLOW     OUTFLOW      INFLOW     OUTFLOW
   1  5.3139E+06  0.0000E+00  0.0000E+00  0.0000E+00

         WATER    CONNECTED LAKE   UPDATED     TIME-STEP          STAGE CHANGE
 LAKE     USE         INFLUX        VOLUME    SURFACE AREA   TIME STEP  CUMULATIVE
   1   0.0000E+00   0.0000E+00   1.8715E+08    6.2500E+06   8.8924E-01  2.3344E+01
 --------------------------------------------------------------------------------



            CUMULATIVE HYDROLOGIC BUDGET SUMMARIES FOR SIMULATED LAKES
     (ALL FLUID FLUXES ARE SUMS OF VOLUMES ADDED TO THE LAKE SINCE INITIAL TIME)
     ---------------------------------------------------------------------------
 LAKE       PRECIP       EVAP       RUNOFF
   1     5.3535E+07  4.7536E+07  0.0000E+00

            GROUND WATER            SURFACE WATER
 LAKE    INFLOW     OUTFLOW      INFLOW     OUTFLOW
   1  1.3992E+08  0.0000E+00  0.0000E+00  0.0000E+00

         WATER    CONNECTED LAKE
 LAKE     USE         INFLUX
   1   0.0000E+00   0.0000E+00
 --------------------------------------------------------------------------------

 
 SOLVING FOR HEAD 
 ALL LAKES CONVERGED AFTER   3  ITERATIONS
 ALL LAKES CONVERGED AFTER   3  ITERATIONS
 ALL LAKES CONVERGED AFTER   3  ITERATIONS
 ALL LAKES CONVERGED AFTER   3  ITERATIONS
 ALL LAKES CONVERGED AFTER   3  ITERATIONS
 ALL LAKES CONVERGED AFTER   3  ITERATIONS
 ALL LAKES CONVERGED AFTER   3  ITERATIONS
 ALL LAKES CONVERGED AFTER   3  ITERATIONS
 ALL LAKES CONVERGED AFTER   3  ITERATIONS
 ALL LAKES CONVERGED AFTER   3  ITERATIONS
 ALL LAKES CONVERGED AFTER   3  ITERATIONS
 ALL LAKES CONVERGED AFTER   3  ITERATIONS
 ALL LAKES CONVERGED AFTER   3  ITERATIONS
 ALL LAKES CONVERGED AFTER   2  ITERATIONS
 ALL LAKES CONVERGED AFTER   2  ITERATIONS
 ALL LAKES CONVERGED AFTER   2  ITERATIONS
 ALL LAKES CONVERGED AFTER   3  ITERATIONS
 ALL LAKES CONVERGED AFTER   2  ITERATIONS
 ALL LAKES CONVERGED AFTER   2  ITERATIONS
 ALL LAKES CONVERGED AFTER   2  ITERATIONS
 ALL LAKES CONVERGED AFTER   2  ITERATIONS
 ALL LAKES CONVERGED AFTER   2  ITERATIONS
 ALL LAKES CONVERGED AFTER   2  ITERATIONS
 ALL LAKES CONVERGED AFTER   2  ITERATIONS
 ALL LAKES CONVERGED AFTER   2  ITERATIONS
 ALL LAKES CONVERGED AFTER   2  ITERATIONS
 ALL LAKES CONVERGED AFTER   2  ITERATIONS
 ALL LAKES CONVERGED AFTER   2  ITERATIONS
 ALL LAKES CONVERGED AFTER   2  ITERATIONS
 ALL LAKES CONVERGED AFTER   2  ITERATIONS
 ALL LAKES CONVERGED AFTER   1  ITERATIONS
 ALL LAKES CONVERGED AFTER   1  ITERATIONS
    32 ITERATIONS FOR TIME STEP  34 IN STRESS PERIOD    1

 MAXIMUM HEAD CHANGE FOR EACH ITERATION:

    HEAD CHANGE   HEAD CHANGE   HEAD CHANGE   HEAD CHANGE   HEAD CHANGE
  LAYER,ROW,COL LAYER,ROW,COL LAYER,ROW,COL LAYER,ROW,COL LAYER,ROW,COL
 ----------------------------------------------------------------------
     0.2022        0.1670        0.1740        0.1012        0.1326    
  (  3,  9,  9) (  4,  6,  8) (  5, 10,  8) (  3,  8, 10) (  3, 10,  8)
     0.6142E-01    0.4966E-01    0.3569E-01    0.4715E-01    0.2273E-01
  (  2,  7,  7) (  5, 10,  8) (  3,  8, 10) (  3, 10,  8) (  3,  8, 10)
     0.2729E-01    0.1481E-01    0.1571E-01    0.8669E-02    0.1136E-01
  (  3,  8,  8) (  5,  9,  9) (  5, 10,  8) (  3,  8, 10) (  3, 10,  8)
     0.5256E-02    0.4241E-02    0.3046E-02    0.4023E-02    0.1948E-02
  (  2,  7,  7) (  5, 10,  8) (  3,  8, 10) (  3, 10,  8) (  3,  8, 10)
     0.2341E-02    0.1249E-02    0.1331E-02    0.7454E-03    0.9761E-03
  (  3,  8,  8) (  5,  9,  9) (  5, 10,  8) (  3,  8, 10) (  3, 10,  8)
     0.4529E-03    0.3606E-03    0.2660E-03    0.3412E-03    0.1705E-03
  (  2,  7,  7) (  5,  8,  7) (  3,  8, 10) (  3, 10,  8) (  3,  8, 10)
     0.1966E-03    0.9923E-04
  (  3,  8,  8) (  5,  9,  9)


 HEAD/DRAWDOWN PRINTOUT FLAG = 0     TOTAL BUDGET PRINTOUT FLAG = 0
 CELL-BY-CELL FLOW TERM FLAG = 1

 OUTPUT FLAGS FOR ALL LAYERS ARE THE SAME:
   HEAD    DRAWDOWN  HEAD  DRAWDOWN
 PRINTOUT  PRINTOUT  SAVE    SAVE
 ----------------------------------
     0         0       0       0


     0  LAKE CELLS ARE DRY.

 PERIOD     1     TIME STEP    34     TIME STEP LENGTH  3.0782E+01
 PERIOD TIME  7.6920E+02     TOTAL SIMULATION TIME  7.6920E+02


                 HYDROLOGIC BUDGET SUMMARIES FOR SIMULATED LAKES
     (ALL FLUID FLUXES ARE VOLUMES ADDED TO THE LAKE DURING PRESENT TIME STEP)
     -------------------------------------------------------------------------
 LAKE   STAGE     PRECIP       EVAP       RUNOFF
   1   134.20  2.2317E+06  1.9816E+06  0.0000E+00

            GROUND WATER            SURFACE WATER
 LAKE    INFLOW     OUTFLOW      INFLOW     OUTFLOW
   1  5.1308E+06  0.0000E+00  0.0000E+00  0.0000E+00

         WATER    CONNECTED LAKE   UPDATED     TIME-STEP          STAGE CHANGE
 LAKE     USE         INFLUX        VOLUME    SURFACE AREA   TIME STEP  CUMULATIVE
   1   0.0000E+00   0.0000E+00   1.9253E+08    6.2500E+06   8.6072E-01  2.4205E+01
 --------------------------------------------------------------------------------



            CUMULATIVE HYDROLOGIC BUDGET SUMMARIES FOR SIMULATED LAKES
     (ALL FLUID FLUXES ARE SUMS OF VOLUMES ADDED TO THE LAKE SINCE INITIAL TIME)
     ---------------------------------------------------------------------------
 LAKE       PRECIP       EVAP       RUNOFF
   1     5.5767E+07  4.9517E+07  0.0000E+00

            GROUND WATER            SURFACE WATER
 LAKE    INFLOW     OUTFLOW      INFLOW     OUTFLOW
   1  1.4505E+08  0.0000E+00  0.0000E+00  0.0000E+00

         WATER    CONNECTED LAKE
 LAKE     USE         INFLUX
   1   0.0000E+00   0.0000E+00
 --------------------------------------------------------------------------------

 
 SOLVING FOR HEAD 
 ALL LAKES CONVERGED AFTER   3  ITERATIONS
 ALL LAKES CONVERGED AFTER   3  ITERATIONS
 ALL LAKES CONVERGED AFTER   3  ITERATIONS
 ALL LAKES CONVERGED AFTER   3  ITERATIONS
 ALL LAKES CONVERGED AFTER   3  ITERATIONS
 ALL LAKES CONVERGED AFTER   3  ITERATIONS
 ALL LAKES CONVERGED AFTER   3  ITERATIONS
 ALL LAKES CONVERGED AFTER   3  ITERATIONS
 ALL LAKES CONVERGED AFTER   3  ITERATIONS
 ALL LAKES CONVERGED AFTER   3  ITERATIONS
 ALL LAKES CONVERGED AFTER   2  ITERATIONS
 ALL LAKES CONVERGED AFTER   2  ITERATIONS
 ALL LAKES CONVERGED AFTER   3  ITERATIONS
 ALL LAKES CONVERGED AFTER   3  ITERATIONS
 ALL LAKES CONVERGED AFTER   2  ITERATIONS
 ALL LAKES CONVERGED AFTER   2  ITERATIONS
 ALL LAKES CONVERGED AFTER   2  ITERATIONS
 ALL LAKES CONVERGED AFTER   2  ITERATIONS
 ALL LAKES CONVERGED AFTER   2  ITERATIONS
 ALL LAKES CONVERGED AFTER   2  ITERATIONS
 ALL LAKES CONVERGED AFTER   2  ITERATIONS
 ALL LAKES CONVERGED AFTER   2  ITERATIONS
 ALL LAKES CONVERGED AFTER   2  ITERATIONS
 ALL LAKES CONVERGED AFTER   2  ITERATIONS
 ALL LAKES CONVERGED AFTER   2  ITERATIONS
 ALL LAKES CONVERGED AFTER   2  ITERATIONS
 ALL LAKES CONVERGED AFTER   2  ITERATIONS
 ALL LAKES CONVERGED AFTER   2  ITERATIONS
 ALL LAKES CONVERGED AFTER   2  ITERATIONS
 ALL LAKES CONVERGED AFTER   2  ITERATIONS
 ALL LAKES CONVERGED AFTER   1  ITERATIONS
 ALL LAKES CONVERGED AFTER   2  ITERATIONS
 ALL LAKES CONVERGED AFTER   1  ITERATIONS
 ALL LAKES CONVERGED AFTER   1  ITERATIONS
    34 ITERATIONS FOR TIME STEP  35 IN STRESS PERIOD    1

 MAXIMUM HEAD CHANGE FOR EACH ITERATION:

    HEAD CHANGE   HEAD CHANGE   HEAD CHANGE   HEAD CHANGE   HEAD CHANGE
  LAYER,ROW,COL LAYER,ROW,COL LAYER,ROW,COL LAYER,ROW,COL LAYER,ROW,COL
 ----------------------------------------------------------------------
     0.1927        0.1593        0.1670        0.9762E-01    0.1281    
  (  3,  9,  9) (  4,  6,  8) (  5, 10,  8) (  3,  8, 10) (  3, 10,  8)
     0.5966E-01    0.4841E-01    0.3497E-01    0.4625E-01    0.2242E-01
  (  2,  7,  7) (  5, 10,  8) (  3,  8, 10) (  3, 10,  8) (  3,  8, 10)
     0.2694E-01    0.1469E-01    0.1563E-01    0.8679E-02    0.1138E-01
  (  3,  8,  8) (  5,  9,  9) (  5, 10,  8) (  3,  8, 10) (  3, 10,  8)
     0.5296E-02    0.4285E-02    0.3097E-02    0.4098E-02    0.1988E-02
  (  2,  7,  7) (  5, 10,  8) (  3,  8, 10) (  3, 10,  8) (  3,  8, 10)
     0.2388E-02    0.1301E-02    0.1382E-02    0.7760E-03    0.1006E-02
  (  3,  8,  8) (  5,  9,  9) (  5, 10,  8) (  3,  8, 10) (  3, 10,  8)
     0.4724E-03    0.3790E-03    0.2862E-03    0.3521E-03    0.1806E-03
  (  2,  7,  7) (  5, 10,  8) (  3,  8, 10) (  5, 10,  8) (  3,  8, 10)
     0.2151E-03    0.1191E-03    0.1277E-03    0.7857E-04
  (  3,  8,  8) (  5,  9,  9) (  5, 10,  8) (  2,  7, 10)


 HEAD/DRAWDOWN PRINTOUT FLAG = 0     TOTAL BUDGET PRINTOUT FLAG = 0
 CELL-BY-CELL FLOW TERM FLAG = 1

 OUTPUT FLAGS FOR ALL LAYERS ARE THE SAME:
   HEAD    DRAWDOWN  HEAD  DRAWDOWN
 PRINTOUT  PRINTOUT  SAVE    SAVE
 ----------------------------------
     0         0       0       0


     0  LAKE CELLS ARE DRY.

 PERIOD     1     TIME STEP    35     TIME STEP LENGTH  3.1398E+01
 PERIOD TIME  8.0060E+02     TOTAL SIMULATION TIME  8.0060E+02


                 HYDROLOGIC BUDGET SUMMARIES FOR SIMULATED LAKES
     (ALL FLUID FLUXES ARE VOLUMES ADDED TO THE LAKE DURING PRESENT TIME STEP)
     -------------------------------------------------------------------------
 LAKE   STAGE     PRECIP       EVAP       RUNOFF
   1   135.04  2.2763E+06  2.0212E+06  0.0000E+00

            GROUND WATER            SURFACE WATER
 LAKE    INFLOW     OUTFLOW      INFLOW     OUTFLOW
   1  4.9406E+06  0.0000E+00  0.0000E+00  0.0000E+00

         WATER    CONNECTED LAKE   UPDATED     TIME-STEP          STAGE CHANGE
 LAKE     USE         INFLUX        VOLUME    SURFACE AREA   TIME STEP  CUMULATIVE
   1   0.0000E+00   0.0000E+00   1.9773E+08    6.2500E+06   8.3122E-01  2.5036E+01
 --------------------------------------------------------------------------------



            CUMULATIVE HYDROLOGIC BUDGET SUMMARIES FOR SIMULATED LAKES
     (ALL FLUID FLUXES ARE SUMS OF VOLUMES ADDED TO THE LAKE SINCE INITIAL TIME)
     ---------------------------------------------------------------------------
 LAKE       PRECIP       EVAP       RUNOFF
   1     5.8043E+07  5.1539E+07  0.0000E+00

            GROUND WATER            SURFACE WATER
 LAKE    INFLOW     OUTFLOW      INFLOW     OUTFLOW
   1  1.4999E+08  0.0000E+00  0.0000E+00  0.0000E+00

         WATER    CONNECTED LAKE
 LAKE     USE         INFLUX
   1   0.0000E+00   0.0000E+00
 --------------------------------------------------------------------------------

 
 SOLVING FOR HEAD 
 ALL LAKES CONVERGED AFTER   3  ITERATIONS
 ALL LAKES CONVERGED AFTER   3  ITERATIONS
 ALL LAKES CONVERGED AFTER   3  ITERATIONS
 ALL LAKES CONVERGED AFTER   3  ITERATIONS
 ALL LAKES CONVERGED AFTER   3  ITERATIONS
 ALL LAKES CONVERGED AFTER   3  ITERATIONS
 ALL LAKES CONVERGED AFTER   3  ITERATIONS
 ALL LAKES CONVERGED AFTER   3  ITERATIONS
 ALL LAKES CONVERGED AFTER   3  ITERATIONS
 ALL LAKES CONVERGED AFTER   3  ITERATIONS
 ALL LAKES CONVERGED AFTER   3  ITERATIONS
 ALL LAKES CONVERGED AFTER   2  ITERATIONS
 ALL LAKES CONVERGED AFTER   2  ITERATIONS
 ALL LAKES CONVERGED AFTER   2  ITERATIONS
 ALL LAKES CONVERGED AFTER   3  ITERATIONS
 ALL LAKES CONVERGED AFTER   3  ITERATIONS
 ALL LAKES CONVERGED AFTER   3  ITERATIONS
 ALL LAKES CONVERGED AFTER   2  ITERATIONS
 ALL LAKES CONVERGED AFTER   2  ITERATIONS
 ALL LAKES CONVERGED AFTER   2  ITERATIONS
 ALL LAKES CONVERGED AFTER   2  ITERATIONS
 ALL LAKES CONVERGED AFTER   2  ITERATIONS
 ALL LAKES CONVERGED AFTER   2  ITERATIONS
 ALL LAKES CONVERGED AFTER   2  ITERATIONS
 ALL LAKES CONVERGED AFTER   2  ITERATIONS
 ALL LAKES CONVERGED AFTER   2  ITERATIONS
 ALL LAKES CONVERGED AFTER   2  ITERATIONS
 ALL LAKES CONVERGED AFTER   2  ITERATIONS
 ALL LAKES CONVERGED AFTER   2  ITERATIONS
 ALL LAKES CONVERGED AFTER   2  ITERATIONS
 ALL LAKES CONVERGED AFTER   1  ITERATIONS
 ALL LAKES CONVERGED AFTER   2  ITERATIONS
 ALL LAKES CONVERGED AFTER   1  ITERATIONS
 ALL LAKES CONVERGED AFTER   1  ITERATIONS
    34 ITERATIONS FOR TIME STEP  36 IN STRESS PERIOD    1

 MAXIMUM HEAD CHANGE FOR EACH ITERATION:

    HEAD CHANGE   HEAD CHANGE   HEAD CHANGE   HEAD CHANGE   HEAD CHANGE
  LAYER,ROW,COL LAYER,ROW,COL LAYER,ROW,COL LAYER,ROW,COL LAYER,ROW,COL
 ----------------------------------------------------------------------
     0.1833        0.1519        0.1599        0.9396E-01    0.1235    
  (  3,  9,  9) (  4,  6,  8) (  5, 10,  8) (  3,  8, 10) (  3, 10,  8)
     0.5781E-01    0.4709E-01    0.3416E-01    0.4525E-01    0.2206E-01
  (  2,  7,  7) (  5, 10,  8) (  3,  8, 10) (  3, 10,  8) (  3,  8, 10)
     0.2653E-01    0.1453E-01    0.1550E-01    0.8669E-02    0.1137E-01
  (  3,  8,  8) (  5,  9,  9) (  5, 10,  8) (  3,  8, 10) (  3, 10,  8)
     0.5308E-02    0.4326E-02    0.3137E-02    0.4155E-02    0.2028E-02
  (  2,  7,  7) (  5, 10,  8) (  3,  8, 10) (  3, 10,  8) (  3,  8, 10)
     0.2444E-02    0.1343E-02    0.1420E-02    0.7966E-03    0.1046E-02
  (  3,  8,  8) (  5,  9,  9) (  5, 10,  8) (  3,  8, 10) (  3, 10,  8)
     0.4829E-03    0.3997E-03    0.2964E-03    0.3810E-03    0.1878E-03
  (  2,  7,  7) (  5, 10,  8) (  3,  8, 10) (  4, 10,  8) (  2,  8, 11)
     0.2250E-03    0.1164E-03    0.1220E-03    0.8036E-04
  (  3,  8,  8) (  4,  8,  9) (  5, 10,  8) (  3,  8, 10)


 HEAD/DRAWDOWN PRINTOUT FLAG = 0     TOTAL BUDGET PRINTOUT FLAG = 0
 CELL-BY-CELL FLOW TERM FLAG = 1

 OUTPUT FLAGS FOR ALL LAYERS ARE THE SAME:
   HEAD    DRAWDOWN  HEAD  DRAWDOWN
 PRINTOUT  PRINTOUT  SAVE    SAVE
 ----------------------------------
     0         0       0       0


     0  LAKE CELLS ARE DRY.

 PERIOD     1     TIME STEP    36     TIME STEP LENGTH  3.2026E+01
 PERIOD TIME  8.3262E+02     TOTAL SIMULATION TIME  8.3262E+02


                 HYDROLOGIC BUDGET SUMMARIES FOR SIMULATED LAKES
     (ALL FLUID FLUXES ARE VOLUMES ADDED TO THE LAKE DURING PRESENT TIME STEP)
     -------------------------------------------------------------------------
 LAKE   STAGE     PRECIP       EVAP       RUNOFF
   1   135.84  2.3219E+06  2.0617E+06  0.0000E+00

            GROUND WATER            SURFACE WATER
 LAKE    INFLOW     OUTFLOW      INFLOW     OUTFLOW
   1  4.7463E+06  0.0000E+00  0.0000E+00  0.0000E+00

         WATER    CONNECTED LAKE   UPDATED     TIME-STEP          STAGE CHANGE
 LAKE     USE         INFLUX        VOLUME    SURFACE AREA   TIME STEP  CUMULATIVE
   1   0.0000E+00   0.0000E+00   2.0273E+08    6.2500E+06   8.0093E-01  2.5837E+01
 --------------------------------------------------------------------------------



            CUMULATIVE HYDROLOGIC BUDGET SUMMARIES FOR SIMULATED LAKES
     (ALL FLUID FLUXES ARE SUMS OF VOLUMES ADDED TO THE LAKE SINCE INITIAL TIME)
     ---------------------------------------------------------------------------
 LAKE       PRECIP       EVAP       RUNOFF
   1     6.0365E+07  5.3600E+07  0.0000E+00

            GROUND WATER            SURFACE WATER
 LAKE    INFLOW     OUTFLOW      INFLOW     OUTFLOW
   1  1.5474E+08  0.0000E+00  0.0000E+00  0.0000E+00

         WATER    CONNECTED LAKE
 LAKE     USE         INFLUX
   1   0.0000E+00   0.0000E+00
 --------------------------------------------------------------------------------

 
 SOLVING FOR HEAD 
 ALL LAKES CONVERGED AFTER   2  ITERATIONS
 ALL LAKES CONVERGED AFTER   3  ITERATIONS
 ALL LAKES CONVERGED AFTER   3  ITERATIONS
 ALL LAKES CONVERGED AFTER   3  ITERATIONS
 ALL LAKES CONVERGED AFTER   3  ITERATIONS
 ALL LAKES CONVERGED AFTER   3  ITERATIONS
 ALL LAKES CONVERGED AFTER   3  ITERATIONS
 ALL LAKES CONVERGED AFTER   3  ITERATIONS
 ALL LAKES CONVERGED AFTER   3  ITERATIONS
 ALL LAKES CONVERGED AFTER   3  ITERATIONS
 ALL LAKES CONVERGED AFTER   3  ITERATIONS
 ALL LAKES CONVERGED AFTER   3  ITERATIONS
 ALL LAKES CONVERGED AFTER   3  ITERATIONS
 ALL LAKES CONVERGED AFTER   2  ITERATIONS
 ALL LAKES CONVERGED AFTER   2  ITERATIONS
 ALL LAKES CONVERGED AFTER   2  ITERATIONS
 ALL LAKES CONVERGED AFTER   2  ITERATIONS
 ALL LAKES CONVERGED AFTER   2  ITERATIONS
 ALL LAKES CONVERGED AFTER   2  ITERATIONS
 ALL LAKES CONVERGED AFTER   2  ITERATIONS
 ALL LAKES CONVERGED AFTER   2  ITERATIONS
 ALL LAKES CONVERGED AFTER   2  ITERATIONS
 ALL LAKES CONVERGED AFTER   2  ITERATIONS
 ALL LAKES CONVERGED AFTER   2  ITERATIONS
 ALL LAKES CONVERGED AFTER   2  ITERATIONS
 ALL LAKES CONVERGED AFTER   2  ITERATIONS
 ALL LAKES CONVERGED AFTER   2  ITERATIONS
 ALL LAKES CONVERGED AFTER   2  ITERATIONS
 ALL LAKES CONVERGED AFTER   2  ITERATIONS
 ALL LAKES CONVERGED AFTER   2  ITERATIONS
 ALL LAKES CONVERGED AFTER   1  ITERATIONS
 ALL LAKES CONVERGED AFTER   2  ITERATIONS
 ALL LAKES CONVERGED AFTER   1  ITERATIONS
 ALL LAKES CONVERGED AFTER   1  ITERATIONS
    34 ITERATIONS FOR TIME STEP  37 IN STRESS PERIOD    1

 MAXIMUM HEAD CHANGE FOR EACH ITERATION:

    HEAD CHANGE   HEAD CHANGE   HEAD CHANGE   HEAD CHANGE   HEAD CHANGE
  LAYER,ROW,COL LAYER,ROW,COL LAYER,ROW,COL LAYER,ROW,COL LAYER,ROW,COL
 ----------------------------------------------------------------------
     0.1739        0.1448        0.1527        0.9022E-01    0.1187    
  (  3,  9,  9) (  4,  6,  8) (  5, 10,  8) (  3,  8, 10) (  3, 10,  8)
     0.5589E-01    0.4567E-01    0.3329E-01    0.4419E-01    0.2165E-01
  (  2,  7,  7) (  5, 10,  8) (  3,  8, 10) (  3, 10,  8) (  3,  8, 10)
     0.2607E-01    0.1434E-01    0.1535E-01    0.8619E-02    0.1132E-01
  (  3,  8,  8) (  5,  9,  9) (  5, 10,  8) (  3,  8, 10) (  3, 10,  8)
     0.5327E-02    0.4338E-02    0.3167E-02    0.4212E-02    0.2061E-02
  (  2,  7,  7) (  5, 10,  8) (  3,  8, 10) (  3, 10,  8) (  2,  7, 10)
     0.2482E-02    0.1365E-02    0.1460E-02    0.8165E-03    0.1076E-02
  (  3,  8,  8) (  5,  9,  9) (  5, 10,  8) (  3,  8, 10) (  3, 10,  8)
     0.5108E-03    0.4136E-03    0.2969E-03    0.3995E-03    0.2073E-03
  (  2,  7,  7) (  5, 10,  8) (  3,  8, 10) (  3, 10,  8) (  2,  8, 11)
     0.2435E-03    0.1314E-03    0.1268E-03    0.8057E-04
  (  3, 10, 10) (  5,  9,  9) (  5, 10,  8) (  3,  8, 10)


 HEAD/DRAWDOWN PRINTOUT FLAG = 0     TOTAL BUDGET PRINTOUT FLAG = 0
 CELL-BY-CELL FLOW TERM FLAG = 1

 OUTPUT FLAGS FOR ALL LAYERS ARE THE SAME:
   HEAD    DRAWDOWN  HEAD  DRAWDOWN
 PRINTOUT  PRINTOUT  SAVE    SAVE
 ----------------------------------
     0         0       0       0


     0  LAKE CELLS ARE DRY.

 PERIOD     1     TIME STEP    37     TIME STEP LENGTH  3.2666E+01
 PERIOD TIME  8.6529E+02     TOTAL SIMULATION TIME  8.6529E+02


                 HYDROLOGIC BUDGET SUMMARIES FOR SIMULATED LAKES
     (ALL FLUID FLUXES ARE VOLUMES ADDED TO THE LAKE DURING PRESENT TIME STEP)
     -------------------------------------------------------------------------
 LAKE   STAGE     PRECIP       EVAP       RUNOFF
   1   136.61  2.3683E+06  2.1029E+06  0.0000E+00

            GROUND WATER            SURFACE WATER
 LAKE    INFLOW     OUTFLOW      INFLOW     OUTFLOW
   1  4.5485E+06  0.0000E+00  0.0000E+00  0.0000E+00

         WATER    CONNECTED LAKE   UPDATED     TIME-STEP          STAGE CHANGE
 LAKE     USE         INFLUX        VOLUME    SURFACE AREA   TIME STEP  CUMULATIVE
   1   0.0000E+00   0.0000E+00   2.0754E+08    6.2500E+06   7.7012E-01  2.6607E+01
 --------------------------------------------------------------------------------



            CUMULATIVE HYDROLOGIC BUDGET SUMMARIES FOR SIMULATED LAKES
     (ALL FLUID FLUXES ARE SUMS OF VOLUMES ADDED TO THE LAKE SINCE INITIAL TIME)
     ---------------------------------------------------------------------------
 LAKE       PRECIP       EVAP       RUNOFF
   1     6.2734E+07  5.5703E+07  0.0000E+00

            GROUND WATER            SURFACE WATER
 LAKE    INFLOW     OUTFLOW      INFLOW     OUTFLOW
   1  1.5929E+08  0.0000E+00  0.0000E+00  0.0000E+00

         WATER    CONNECTED LAKE
 LAKE     USE         INFLUX
   1   0.0000E+00   0.0000E+00
 --------------------------------------------------------------------------------

 
 SOLVING FOR HEAD 
 ALL LAKES CONVERGED AFTER   3  ITERATIONS
 ALL LAKES CONVERGED AFTER   3  ITERATIONS
 ALL LAKES CONVERGED AFTER   3  ITERATIONS
 ALL LAKES CONVERGED AFTER   3  ITERATIONS
 ALL LAKES CONVERGED AFTER   3  ITERATIONS
 ALL LAKES CONVERGED AFTER   3  ITERATIONS
 ALL LAKES CONVERGED AFTER   3  ITERATIONS
 ALL LAKES CONVERGED AFTER   3  ITERATIONS
 ALL LAKES CONVERGED AFTER   3  ITERATIONS
 ALL LAKES CONVERGED AFTER   3  ITERATIONS
 ALL LAKES CONVERGED AFTER   2  ITERATIONS
 ALL LAKES CONVERGED AFTER   2  ITERATIONS
 ALL LAKES CONVERGED AFTER   2  ITERATIONS
 ALL LAKES CONVERGED AFTER   3  ITERATIONS
 ALL LAKES CONVERGED AFTER   2  ITERATIONS
 ALL LAKES CONVERGED AFTER   2  ITERATIONS
 ALL LAKES CONVERGED AFTER   2  ITERATIONS
 ALL LAKES CONVERGED AFTER   2  ITERATIONS
 ALL LAKES CONVERGED AFTER   2  ITERATIONS
 ALL LAKES CONVERGED AFTER   2  ITERATIONS
 ALL LAKES CONVERGED AFTER   2  ITERATIONS
 ALL LAKES CONVERGED AFTER   2  ITERATIONS
 ALL LAKES CONVERGED AFTER   2  ITERATIONS
 ALL LAKES CONVERGED AFTER   2  ITERATIONS
 ALL LAKES CONVERGED AFTER   2  ITERATIONS
 ALL LAKES CONVERGED AFTER   2  ITERATIONS
 ALL LAKES CONVERGED AFTER   2  ITERATIONS
 ALL LAKES CONVERGED AFTER   2  ITERATIONS
 ALL LAKES CONVERGED AFTER   2  ITERATIONS
 ALL LAKES CONVERGED AFTER   2  ITERATIONS
 ALL LAKES CONVERGED AFTER   1  ITERATIONS
 ALL LAKES CONVERGED AFTER   2  ITERATIONS
 ALL LAKES CONVERGED AFTER   1  ITERATIONS
 ALL LAKES CONVERGED AFTER   1  ITERATIONS
    34 ITERATIONS FOR TIME STEP  38 IN STRESS PERIOD    1

 MAXIMUM HEAD CHANGE FOR EACH ITERATION:

    HEAD CHANGE   HEAD CHANGE   HEAD CHANGE   HEAD CHANGE   HEAD CHANGE
  LAYER,ROW,COL LAYER,ROW,COL LAYER,ROW,COL LAYER,ROW,COL LAYER,ROW,COL
 ----------------------------------------------------------------------
     0.1647        0.1379        0.1455        0.8646E-01    0.1139    
  (  3, 10,  9) (  4,  6,  8) (  5, 10,  8) (  3,  8, 10) (  3, 10,  8)
     0.5390E-01    0.4422E-01    0.3238E-01    0.4303E-01    0.2121E-01
  (  2,  7,  7) (  5, 10,  8) (  3,  8, 10) (  3, 10,  8) (  3,  8, 10)
     0.2557E-01    0.1412E-01    0.1515E-01    0.8558E-02    0.1126E-01
  (  3,  8,  8) (  5,  9,  9) (  5, 10,  8) (  3,  8, 10) (  3, 10,  8)
     0.5328E-02    0.4348E-02    0.3187E-02    0.4241E-02    0.2078E-02
  (  2,  7,  7) (  5, 10,  8) (  3,  8, 10) (  3, 10,  8) (  3,  8, 10)
     0.2519E-02    0.1387E-02    0.1489E-02    0.8468E-03    0.1106E-02
  (  3,  8,  8) (  5,  9,  9) (  5, 10,  8) (  3,  8, 10) (  3, 10,  8)
     0.5300E-03    0.4299E-03    0.3076E-03    0.4193E-03    0.2109E-03
  (  2,  7,  7) (  5,  9,  8) (  3,  8, 10) (  3, 10,  8) (  3,  8, 10)
     0.2528E-03    0.1320E-03    0.1470E-03    0.9067E-04
  (  3, 10, 10) (  5,  9,  9) (  5, 10,  8) (  3,  8, 10)


 HEAD/DRAWDOWN PRINTOUT FLAG = 0     TOTAL BUDGET PRINTOUT FLAG = 0
 CELL-BY-CELL FLOW TERM FLAG = 1

 OUTPUT FLAGS FOR ALL LAYERS ARE THE SAME:
   HEAD    DRAWDOWN  HEAD  DRAWDOWN
 PRINTOUT  PRINTOUT  SAVE    SAVE
 ----------------------------------
     0         0       0       0


     0  LAKE CELLS ARE DRY.

 PERIOD     1     TIME STEP    38     TIME STEP LENGTH  3.3320E+01
 PERIOD TIME  8.9861E+02     TOTAL SIMULATION TIME  8.9861E+02


                 HYDROLOGIC BUDGET SUMMARIES FOR SIMULATED LAKES
     (ALL FLUID FLUXES ARE VOLUMES ADDED TO THE LAKE DURING PRESENT TIME STEP)
     -------------------------------------------------------------------------
 LAKE   STAGE     PRECIP       EVAP       RUNOFF
   1   137.35  2.4157E+06  2.1449E+06  0.0000E+00

            GROUND WATER            SURFACE WATER
 LAKE    INFLOW     OUTFLOW      INFLOW     OUTFLOW
   1  4.3487E+06  0.0000E+00  0.0000E+00  0.0000E+00

         WATER    CONNECTED LAKE   UPDATED     TIME-STEP          STAGE CHANGE
 LAKE     USE         INFLUX        VOLUME    SURFACE AREA   TIME STEP  CUMULATIVE
   1   0.0000E+00   0.0000E+00   2.1216E+08    6.2500E+06   7.3901E-01  2.7346E+01
 --------------------------------------------------------------------------------



            CUMULATIVE HYDROLOGIC BUDGET SUMMARIES FOR SIMULATED LAKES
     (ALL FLUID FLUXES ARE SUMS OF VOLUMES ADDED TO THE LAKE SINCE INITIAL TIME)
     ---------------------------------------------------------------------------
 LAKE       PRECIP       EVAP       RUNOFF
   1     6.5149E+07  5.7848E+07  0.0000E+00

            GROUND WATER            SURFACE WATER
 LAKE    INFLOW     OUTFLOW      INFLOW     OUTFLOW
   1  1.6363E+08  0.0000E+00  0.0000E+00  0.0000E+00

         WATER    CONNECTED LAKE
 LAKE     USE         INFLUX
   1   0.0000E+00   0.0000E+00
 --------------------------------------------------------------------------------

 
 SOLVING FOR HEAD 
 ALL LAKES CONVERGED AFTER   3  ITERATIONS
 ALL LAKES CONVERGED AFTER   3  ITERATIONS
 ALL LAKES CONVERGED AFTER   3  ITERATIONS
 ALL LAKES CONVERGED AFTER   3  ITERATIONS
 ALL LAKES CONVERGED AFTER   3  ITERATIONS
 ALL LAKES CONVERGED AFTER   3  ITERATIONS
 ALL LAKES CONVERGED AFTER   3  ITERATIONS
 ALL LAKES CONVERGED AFTER   2  ITERATIONS
 ALL LAKES CONVERGED AFTER   2  ITERATIONS
 ALL LAKES CONVERGED AFTER   3  ITERATIONS
 ALL LAKES CONVERGED AFTER   2  ITERATIONS
 ALL LAKES CONVERGED AFTER   3  ITERATIONS
 ALL LAKES CONVERGED AFTER   3  ITERATIONS
 ALL LAKES CONVERGED AFTER   2  ITERATIONS
 ALL LAKES CONVERGED AFTER   2  ITERATIONS
 ALL LAKES CONVERGED AFTER   2  ITERATIONS
 ALL LAKES CONVERGED AFTER   2  ITERATIONS
 ALL LAKES CONVERGED AFTER   2  ITERATIONS
 ALL LAKES CONVERGED AFTER   2  ITERATIONS
 ALL LAKES CONVERGED AFTER   2  ITERATIONS
 ALL LAKES CONVERGED AFTER   2  ITERATIONS
 ALL LAKES CONVERGED AFTER   2  ITERATIONS
 ALL LAKES CONVERGED AFTER   2  ITERATIONS
 ALL LAKES CONVERGED AFTER   2  ITERATIONS
 ALL LAKES CONVERGED AFTER   2  ITERATIONS
 ALL LAKES CONVERGED AFTER   2  ITERATIONS
 ALL LAKES CONVERGED AFTER   2  ITERATIONS
 ALL LAKES CONVERGED AFTER   2  ITERATIONS
 ALL LAKES CONVERGED AFTER   2  ITERATIONS
 ALL LAKES CONVERGED AFTER   2  ITERATIONS
 ALL LAKES CONVERGED AFTER   1  ITERATIONS
 ALL LAKES CONVERGED AFTER   2  ITERATIONS
 ALL LAKES CONVERGED AFTER   1  ITERATIONS
 ALL LAKES CONVERGED AFTER   1  ITERATIONS
    34 ITERATIONS FOR TIME STEP  39 IN STRESS PERIOD    1

 MAXIMUM HEAD CHANGE FOR EACH ITERATION:

    HEAD CHANGE   HEAD CHANGE   HEAD CHANGE   HEAD CHANGE   HEAD CHANGE
  LAYER,ROW,COL LAYER,ROW,COL LAYER,ROW,COL LAYER,ROW,COL LAYER,ROW,COL
 ----------------------------------------------------------------------
     0.1556        0.1313        0.1384        0.8268E-01    0.1090    
  (  3, 10,  9) (  4,  6,  8) (  5, 10,  8) (  3,  8, 10) (  3, 10,  8)
     0.5189E-01    0.4272E-01    0.3141E-01    0.4180E-01    0.2070E-01
  (  2,  7,  7) (  5, 10,  8) (  3,  8, 10) (  3, 10,  8) (  3,  8, 10)
     0.2498E-01    0.1386E-01    0.1491E-01    0.8477E-02    0.1116E-01
  (  3,  8,  8) (  5,  9,  9) (  5, 10,  8) (  3,  8, 10) (  3, 10,  8)
     0.5302E-02    0.4364E-02    0.3198E-02    0.4251E-02    0.2108E-02
  (  2,  7,  7) (  5, 10,  8) (  3,  8, 10) (  3, 10,  8) (  3,  8, 10)
     0.2547E-02    0.1408E-02    0.1519E-02    0.8669E-03    0.1136E-02
  (  3,  8,  8) (  5,  9,  9) (  5, 10,  8) (  3,  8, 10) (  3, 10,  8)
     0.5398E-03    0.4464E-03    0.3277E-03    0.4295E-03    0.2275E-03
  (  2,  7,  7) (  5, 10,  8) (  3,  8, 10) (  4, 10,  8) (  2,  8, 11)
     0.2624E-03    0.1467E-03    0.1549E-03    0.9067E-04
  (  3, 10, 10) (  4,  8,  9) (  5, 10,  8) (  3,  8, 10)


 HEAD/DRAWDOWN PRINTOUT FLAG = 0     TOTAL BUDGET PRINTOUT FLAG = 0
 CELL-BY-CELL FLOW TERM FLAG = 1

 OUTPUT FLAGS FOR ALL LAYERS ARE THE SAME:
   HEAD    DRAWDOWN  HEAD  DRAWDOWN
 PRINTOUT  PRINTOUT  SAVE    SAVE
 ----------------------------------
     0         0       0       0


     0  LAKE CELLS ARE DRY.

 PERIOD     1     TIME STEP    39     TIME STEP LENGTH  3.3986E+01
 PERIOD TIME  9.3260E+02     TOTAL SIMULATION TIME  9.3260E+02


                 HYDROLOGIC BUDGET SUMMARIES FOR SIMULATED LAKES
     (ALL FLUID FLUXES ARE VOLUMES ADDED TO THE LAKE DURING PRESENT TIME STEP)
     -------------------------------------------------------------------------
 LAKE   STAGE     PRECIP       EVAP       RUNOFF
   1   138.05  2.4640E+06  2.1878E+06  0.0000E+00

            GROUND WATER            SURFACE WATER
 LAKE    INFLOW     OUTFLOW      INFLOW     OUTFLOW
   1  4.1479E+06  0.0000E+00  0.0000E+00  0.0000E+00

         WATER    CONNECTED LAKE   UPDATED     TIME-STEP          STAGE CHANGE
 LAKE     USE         INFLUX        VOLUME    SURFACE AREA   TIME STEP  CUMULATIVE
   1   0.0000E+00   0.0000E+00   2.1659E+08    6.2500E+06   7.0775E-01  2.8054E+01
 --------------------------------------------------------------------------------



            CUMULATIVE HYDROLOGIC BUDGET SUMMARIES FOR SIMULATED LAKES
     (ALL FLUID FLUXES ARE SUMS OF VOLUMES ADDED TO THE LAKE SINCE INITIAL TIME)
     ---------------------------------------------------------------------------
 LAKE       PRECIP       EVAP       RUNOFF
   1     6.7613E+07  6.0036E+07  0.0000E+00

            GROUND WATER            SURFACE WATER
 LAKE    INFLOW     OUTFLOW      INFLOW     OUTFLOW
   1  1.6778E+08  0.0000E+00  0.0000E+00  0.0000E+00

         WATER    CONNECTED LAKE
 LAKE     USE         INFLUX
   1   0.0000E+00   0.0000E+00
 --------------------------------------------------------------------------------

 
 SOLVING FOR HEAD 
 ALL LAKES CONVERGED AFTER   3  ITERATIONS
 ALL LAKES CONVERGED AFTER   3  ITERATIONS
 ALL LAKES CONVERGED AFTER   3  ITERATIONS
 ALL LAKES CONVERGED AFTER   3  ITERATIONS
 ALL LAKES CONVERGED AFTER   2  ITERATIONS
 ALL LAKES CONVERGED AFTER   3  ITERATIONS
 ALL LAKES CONVERGED AFTER   3  ITERATIONS
 ALL LAKES CONVERGED AFTER   3  ITERATIONS
 ALL LAKES CONVERGED AFTER   3  ITERATIONS
 ALL LAKES CONVERGED AFTER   3  ITERATIONS
 ALL LAKES CONVERGED AFTER   3  ITERATIONS
 ALL LAKES CONVERGED AFTER   3  ITERATIONS
 ALL LAKES CONVERGED AFTER   3  ITERATIONS
 ALL LAKES CONVERGED AFTER   3  ITERATIONS
 ALL LAKES CONVERGED AFTER   3  ITERATIONS
 ALL LAKES CONVERGED AFTER   2  ITERATIONS
 ALL LAKES CONVERGED AFTER   2  ITERATIONS
 ALL LAKES CONVERGED AFTER   2  ITERATIONS
 ALL LAKES CONVERGED AFTER   2  ITERATIONS
 ALL LAKES CONVERGED AFTER   2  ITERATIONS
 ALL LAKES CONVERGED AFTER   2  ITERATIONS
 ALL LAKES CONVERGED AFTER   2  ITERATIONS
 ALL LAKES CONVERGED AFTER   2  ITERATIONS
 ALL LAKES CONVERGED AFTER   2  ITERATIONS
 ALL LAKES CONVERGED AFTER   2  ITERATIONS
 ALL LAKES CONVERGED AFTER   2  ITERATIONS
 ALL LAKES CONVERGED AFTER   2  ITERATIONS
 ALL LAKES CONVERGED AFTER   2  ITERATIONS
 ALL LAKES CONVERGED AFTER   2  ITERATIONS
 ALL LAKES CONVERGED AFTER   2  ITERATIONS
 ALL LAKES CONVERGED AFTER   1  ITERATIONS
 ALL LAKES CONVERGED AFTER   2  ITERATIONS
 ALL LAKES CONVERGED AFTER   2  ITERATIONS
 ALL LAKES CONVERGED AFTER   1  ITERATIONS
    34 ITERATIONS FOR TIME STEP  40 IN STRESS PERIOD    1

 MAXIMUM HEAD CHANGE FOR EACH ITERATION:

    HEAD CHANGE   HEAD CHANGE   HEAD CHANGE   HEAD CHANGE   HEAD CHANGE
  LAYER,ROW,COL LAYER,ROW,COL LAYER,ROW,COL LAYER,ROW,COL LAYER,ROW,COL
 ----------------------------------------------------------------------
     0.1467        0.1248        0.1314        0.7890E-01    0.1042    
  (  3, 10,  9) (  4,  6,  8) (  5, 10,  8) (  3,  8, 10) (  3, 10,  8)
     0.4983E-01    0.4117E-01    0.3040E-01    0.4053E-01    0.2018E-01
  (  2,  7,  7) (  5, 10,  8) (  3,  8, 10) (  3, 10,  8) (  3,  8, 10)
     0.2438E-01    0.1358E-01    0.1464E-01    0.8367E-02    0.1103E-01
  (  3,  8,  8) (  5,  9,  9) (  5, 10,  8) (  3,  8, 10) (  3, 10,  8)
     0.5266E-02    0.4351E-02    0.3217E-02    0.4278E-02    0.2128E-02
  (  2,  7,  7) (  5, 10,  8) (  3,  8, 10) (  3, 10,  8) (  3,  8, 10)
     0.2575E-02    0.1420E-02    0.1547E-02    0.8771E-03    0.1166E-02
  (  3,  8,  8) (  5,  9,  9) (  5, 10,  8) (  3,  8, 10) (  3, 10,  8)
     0.5498E-03    0.4673E-03    0.3381E-03    0.4373E-03    0.2306E-03
  (  2,  7,  7) (  5, 10,  8) (  3,  8, 10) (  4, 10,  8) (  3,  8, 10)
     0.2714E-03    0.1448E-03    0.1717E-03    0.9072E-04
  (  3,  8,  8) (  4, 10, 11) (  5, 10,  8) (  3,  8, 10)


 HEAD/DRAWDOWN PRINTOUT FLAG = 1     TOTAL BUDGET PRINTOUT FLAG = 1
 CELL-BY-CELL FLOW TERM FLAG = 1

 OUTPUT FLAGS FOR EACH LAYER:
          HEAD    DRAWDOWN  HEAD  DRAWDOWN
 LAYER  PRINTOUT  PRINTOUT  SAVE    SAVE
 -----------------------------------------
    1       0         0       0       0
    2       0         0       0       0
    3       0         0       0       0
    4       0         0       0       0
    5       1         0       0       0


     0  LAKE CELLS ARE DRY.

 PERIOD     1     TIME STEP    40     TIME STEP LENGTH  3.4666E+01
 PERIOD TIME  9.6726E+02     TOTAL SIMULATION TIME  9.6726E+02


                 HYDROLOGIC BUDGET SUMMARIES FOR SIMULATED LAKES
     (ALL FLUID FLUXES ARE VOLUMES ADDED TO THE LAKE DURING PRESENT TIME STEP)
     -------------------------------------------------------------------------
 LAKE   STAGE     PRECIP       EVAP       RUNOFF
   1   138.73  2.5133E+06  2.2316E+06  0.0000E+00

            GROUND WATER            SURFACE WATER
 LAKE    INFLOW     OUTFLOW      INFLOW     OUTFLOW
   1  3.9472E+06  0.0000E+00  0.0000E+00  0.0000E+00

         WATER    CONNECTED LAKE   UPDATED     TIME-STEP          STAGE CHANGE
 LAKE     USE         INFLUX        VOLUME    SURFACE AREA   TIME STEP  CUMULATIVE
   1   0.0000E+00   0.0000E+00   2.2082E+08    6.2500E+06   6.7648E-01  2.8730E+01
 --------------------------------------------------------------------------------



            CUMULATIVE HYDROLOGIC BUDGET SUMMARIES FOR SIMULATED LAKES
     (ALL FLUID FLUXES ARE SUMS OF VOLUMES ADDED TO THE LAKE SINCE INITIAL TIME)
     ---------------------------------------------------------------------------
 LAKE       PRECIP       EVAP       RUNOFF
   1     7.0126E+07  6.2267E+07  0.0000E+00

            GROUND WATER            SURFACE WATER
 LAKE    INFLOW     OUTFLOW      INFLOW     OUTFLOW
   1  1.7173E+08  0.0000E+00  0.0000E+00  0.0000E+00

         WATER    CONNECTED LAKE
 LAKE     USE         INFLUX
   1   0.0000E+00   0.0000E+00
 --------------------------------------------------------------------------------

1
              HEAD IN LAYER   5 AT END OF TIME STEP  40 IN STRESS PERIOD    1
  ---------------------------------------------------------------------------

          1      2      3      4      5      6      7      8      9     10
 .........................................................................
   1   160.0  158.9  157.3  155.8  154.2  152.7  151.5  150.8  150.0  149.2
   2   160.0  158.5  156.7  154.9  153.3  151.6  150.5  149.7  148.9  148.1
   3   160.0  158.3  156.1  154.2  152.3  150.5  149.3  148.4  147.7  146.9
   4   160.0  158.2  155.7  153.6  151.6  149.6  148.2  147.3  146.5  145.8
   5   160.0  158.1  155.5  153.1  150.8  148.4  146.7  145.8  145.0  144.3
   6   160.0  158.0  155.3  152.7  150.0  146.7  144.1  143.1  142.4  142.0
   7   160.0  157.9  155.2  152.5  149.4  145.1  139.1  138.9  138.8  138.8
   8   160.0  157.9  155.1  152.4  149.1  144.6  138.9  138.7  138.7  138.7
   9   160.0  157.9  155.1  152.3  149.1  144.4  138.9  138.7  138.7  138.7
  10   160.0  157.9  155.1  152.4  149.1  144.6  138.9  138.7  138.7  138.7
  11   160.0  157.9  155.2  152.5  149.4  145.1  139.1  138.9  138.8  138.8
  12   160.0  158.0  155.3  152.7  150.0  146.7  144.1  143.1  142.4  142.0
  13   160.0  158.1  155.5  153.1  150.8  148.4  146.7  145.8  145.0  144.3
  14   160.0  158.2  155.7  153.6  151.6  149.6  148.2  147.3  146.5  145.8
  15   160.0  158.3  156.1  154.2  152.3  150.5  149.3  148.4  147.7  146.9
  16   160.0  158.5  156.7  154.9  153.3  151.6  150.5  149.7  148.9  148.1
  17   160.0  158.9  157.3  155.8  154.2  152.7  151.5  150.8  150.0  149.2
1
              HEAD IN LAYER   5 AT END OF TIME STEP  40 IN STRESS PERIOD    1
  ---------------------------------------------------------------------------

         11     12     13     14     15     16     17
 ....................................................
   1   148.5  147.3  145.8  144.2  142.7  141.1  140.0
   2   147.3  146.2  144.7  143.3  141.9  140.6  140.0
   3   146.2  145.1  143.7  142.4  141.2  140.2  140.0
   4   145.1  144.2  143.0  141.8  140.8  140.0  140.0
   5   143.8  143.2  142.3  141.4  140.5  139.9  140.0
   6   141.8  141.9  141.6  141.0  140.3  139.9  140.0
   7   138.9  140.8  141.2  140.8  140.2  139.8  140.0
   8   138.8  140.5  141.0  140.7  140.2  139.8  140.0
   9   138.8  140.4  140.9  140.7  140.2  139.8  140.0
  10   138.8  140.5  141.0  140.7  140.2  139.8  140.0
  11   138.9  140.8  141.2  140.8  140.2  139.8  140.0
  12   141.8  141.9  141.6  141.0  140.3  139.9  140.0
  13   143.8  143.2  142.3  141.4  140.5  139.9  140.0
  14   145.1  144.2  143.0  141.8  140.8  140.0  140.0
  15   146.2  145.1  143.7  142.4  141.2  140.2  140.0
  16   147.3  146.2  144.7  143.3  141.9  140.6  140.0
  17   148.5  147.3  145.8  144.2  142.7  141.1  140.0
1
  VOLUMETRIC BUDGET FOR ENTIRE MODEL AT END OF TIME STEP 40 IN STRESS PERIOD   1
  ------------------------------------------------------------------------------

     CUMULATIVE VOLUMES      L**3       RATES FOR THIS TIME STEP      L**3/T
     ------------------                 ------------------------

           IN:                                      IN:
           ---                                      ---
             STORAGE =       31346.7051               STORAGE =           0.0000
       CONSTANT HEAD =   606668288.0000         CONSTANT HEAD =      191497.0781
                  ET =           0.0000                    ET =           0.0000
            RECHARGE =  1683034240.0000              RECHARGE =     1740000.0000
     SPECIFIED FLOWS =           0.0000       SPECIFIED FLOWS =           0.0000
       LAKE  SEEPAGE =           0.0000         LAKE  SEEPAGE =           0.0000

            TOTAL IN =  2289733888.0000              TOTAL IN =     1931497.1250

          OUT:                                     OUT:
          ----                                     ----
             STORAGE =   975700032.0000               STORAGE =       74290.1172
       CONSTANT HEAD =     2817949.2500         CONSTANT HEAD =        5780.2017
                  ET =  1139469056.0000                    ET =     1737532.7500
            RECHARGE =           0.0000              RECHARGE =           0.0000
     SPECIFIED FLOWS =           0.0000       SPECIFIED FLOWS =           0.0000
       LAKE  SEEPAGE =   171729136.0000         LAKE  SEEPAGE =      113865.1172

           TOTAL OUT =  2289716224.0000             TOTAL OUT =     1931468.1250

            IN - OUT =       17664.0000              IN - OUT =          29.0000

 PERCENT DISCREPANCY =           0.00     PERCENT DISCREPANCY =           0.00






          TIME SUMMARY AT END OF TIME STEP  40 IN STRESS PERIOD    1
                    SECONDS     MINUTES      HOURS       DAYS        YEARS
                    -----------------------------------------------------------
   TIME STEP LENGTH 2.99511E+06  49919.      831.98      34.666     9.49093E-02
 STRESS PERIOD TIME 8.35714E+07 1.39286E+06  23214.      967.26      2.6482    
         TOTAL TIME 8.35714E+07 1.39286E+06  23214.      967.26      2.6482    
1
 
 SOLVING FOR HEAD 
 ALL LAKES CONVERGED AFTER   3  ITERATIONS
 ALL LAKES CONVERGED AFTER   3  ITERATIONS
 ALL LAKES CONVERGED AFTER   3  ITERATIONS
 ALL LAKES CONVERGED AFTER   3  ITERATIONS
 ALL LAKES CONVERGED AFTER   2  ITERATIONS
 ALL LAKES CONVERGED AFTER   3  ITERATIONS
 ALL LAKES CONVERGED AFTER   3  ITERATIONS
 ALL LAKES CONVERGED AFTER   3  ITERATIONS
 ALL LAKES CONVERGED AFTER   3  ITERATIONS
 ALL LAKES CONVERGED AFTER   3  ITERATIONS
 ALL LAKES CONVERGED AFTER   3  ITERATIONS
 ALL LAKES CONVERGED AFTER   3  ITERATIONS
 ALL LAKES CONVERGED AFTER   3  ITERATIONS
 ALL LAKES CONVERGED AFTER   3  ITERATIONS
 ALL LAKES CONVERGED AFTER   2  ITERATIONS
 ALL LAKES CONVERGED AFTER   2  ITERATIONS
 ALL LAKES CONVERGED AFTER   3  ITERATIONS
 ALL LAKES CONVERGED AFTER   2  ITERATIONS
 ALL LAKES CONVERGED AFTER   2  ITERATIONS
 ALL LAKES CONVERGED AFTER   2  ITERATIONS
 ALL LAKES CONVERGED AFTER   2  ITERATIONS
 ALL LAKES CONVERGED AFTER   2  ITERATIONS
 ALL LAKES CONVERGED AFTER   2  ITERATIONS
 ALL LAKES CONVERGED AFTER   2  ITERATIONS
 ALL LAKES CONVERGED AFTER   2  ITERATIONS
 ALL LAKES CONVERGED AFTER   2  ITERATIONS
 ALL LAKES CONVERGED AFTER   2  ITERATIONS
 ALL LAKES CONVERGED AFTER   2  ITERATIONS
 ALL LAKES CONVERGED AFTER   2  ITERATIONS
 ALL LAKES CONVERGED AFTER   2  ITERATIONS
 ALL LAKES CONVERGED AFTER   1  ITERATIONS
 ALL LAKES CONVERGED AFTER   2  ITERATIONS
 ALL LAKES CONVERGED AFTER   2  ITERATIONS
 ALL LAKES CONVERGED AFTER   1  ITERATIONS
    34 ITERATIONS FOR TIME STEP  41 IN STRESS PERIOD    1

 MAXIMUM HEAD CHANGE FOR EACH ITERATION:

    HEAD CHANGE   HEAD CHANGE   HEAD CHANGE   HEAD CHANGE   HEAD CHANGE
  LAYER,ROW,COL LAYER,ROW,COL LAYER,ROW,COL LAYER,ROW,COL LAYER,ROW,COL
 ----------------------------------------------------------------------
     0.1381        0.1185        0.1244        0.7513E-01    0.9932E-01
  (  3, 10,  9) (  4,  6,  8) (  5, 10,  8) (  3,  8, 10) (  3, 10,  8)
     0.4776E-01    0.3959E-01    0.2935E-01    0.3920E-01    0.1962E-01
  (  2,  7,  7) (  5, 10,  8) (  3,  8, 10) (  3, 10,  8) (  3,  8, 10)
     0.2371E-01    0.1328E-01    0.1436E-01    0.8246E-02    0.1087E-01
  (  3,  8,  8) (  5,  9,  9) (  5, 10,  8) (  3,  8, 10) (  3, 10,  8)
     0.5220E-02    0.4325E-02    0.3206E-02    0.4269E-02    0.2138E-02
  (  2,  7,  7) (  5, 10,  8) (  3,  8, 10) (  3, 10,  8) (  3,  8, 10)
     0.2585E-02    0.1459E-02    0.1570E-02    0.8969E-03    0.1185E-02
  (  3,  8,  8) (  5,  9,  9) (  5, 10,  8) (  3,  8, 10) (  3, 10,  8)
     0.5690E-03    0.4795E-03    0.3596E-03    0.4750E-03    0.2273E-03
  (  2,  7,  7) (  5, 10,  8) (  2,  9, 11) (  3, 10,  8) (  2,  8, 11)
     0.2808E-03    0.1631E-03    0.1702E-03    0.9068E-04
  (  3,  8,  8) (  5,  9,  9) (  5, 10,  8) (  3,  8, 10)


 HEAD/DRAWDOWN PRINTOUT FLAG = 0     TOTAL BUDGET PRINTOUT FLAG = 0
 CELL-BY-CELL FLOW TERM FLAG = 1

 OUTPUT FLAGS FOR ALL LAYERS ARE THE SAME:
   HEAD    DRAWDOWN  HEAD  DRAWDOWN
 PRINTOUT  PRINTOUT  SAVE    SAVE
 ----------------------------------
     0         0       0       0


     0  LAKE CELLS ARE DRY.

 PERIOD     1     TIME STEP    41     TIME STEP LENGTH  3.5359E+01
 PERIOD TIME  1.0026E+03     TOTAL SIMULATION TIME  1.0026E+03


                 HYDROLOGIC BUDGET SUMMARIES FOR SIMULATED LAKES
     (ALL FLUID FLUXES ARE VOLUMES ADDED TO THE LAKE DURING PRESENT TIME STEP)
     -------------------------------------------------------------------------
 LAKE   STAGE     PRECIP       EVAP       RUNOFF
   1   139.38  2.5635E+06  2.2762E+06  0.0000E+00

            GROUND WATER            SURFACE WATER
 LAKE    INFLOW     OUTFLOW      INFLOW     OUTFLOW
   1  3.7475E+06  0.0000E+00  0.0000E+00  0.0000E+00

         WATER    CONNECTED LAKE   UPDATED     TIME-STEP          STAGE CHANGE
 LAKE     USE         INFLUX        VOLUME    SURFACE AREA   TIME STEP  CUMULATIVE
   1   0.0000E+00   0.0000E+00   2.2485E+08    6.2500E+06   6.4543E-01  2.9376E+01
 --------------------------------------------------------------------------------



            CUMULATIVE HYDROLOGIC BUDGET SUMMARIES FOR SIMULATED LAKES
     (ALL FLUID FLUXES ARE SUMS OF VOLUMES ADDED TO THE LAKE SINCE INITIAL TIME)
     ---------------------------------------------------------------------------
 LAKE       PRECIP       EVAP       RUNOFF
   1     7.2690E+07  6.4544E+07  0.0000E+00

            GROUND WATER            SURFACE WATER
 LAKE    INFLOW     OUTFLOW      INFLOW     OUTFLOW
   1  1.7548E+08  0.0000E+00  0.0000E+00  0.0000E+00

         WATER    CONNECTED LAKE
 LAKE     USE         INFLUX
   1   0.0000E+00   0.0000E+00
 --------------------------------------------------------------------------------

 
 SOLVING FOR HEAD 
 ALL LAKES CONVERGED AFTER   3  ITERATIONS
 ALL LAKES CONVERGED AFTER   3  ITERATIONS
 ALL LAKES CONVERGED AFTER   3  ITERATIONS
 ALL LAKES CONVERGED AFTER   3  ITERATIONS
 ALL LAKES CONVERGED AFTER   2  ITERATIONS
 ALL LAKES CONVERGED AFTER   3  ITERATIONS
 ALL LAKES CONVERGED AFTER   3  ITERATIONS
 ALL LAKES CONVERGED AFTER   3  ITERATIONS
 ALL LAKES CONVERGED AFTER   3  ITERATIONS
 ALL LAKES CONVERGED AFTER   3  ITERATIONS
 ALL LAKES CONVERGED AFTER   2  ITERATIONS
 ALL LAKES CONVERGED AFTER   2  ITERATIONS
 ALL LAKES CONVERGED AFTER   2  ITERATIONS
 ALL LAKES CONVERGED AFTER   2  ITERATIONS
 ALL LAKES CONVERGED AFTER   2  ITERATIONS
 ALL LAKES CONVERGED AFTER   3  ITERATIONS
 ALL LAKES CONVERGED AFTER   2  ITERATIONS
 ALL LAKES CONVERGED AFTER   2  ITERATIONS
 ALL LAKES CONVERGED AFTER   2  ITERATIONS
 ALL LAKES CONVERGED AFTER   2  ITERATIONS
 ALL LAKES CONVERGED AFTER   2  ITERATIONS
 ALL LAKES CONVERGED AFTER   2  ITERATIONS
 ALL LAKES CONVERGED AFTER   2  ITERATIONS
 ALL LAKES CONVERGED AFTER   2  ITERATIONS
 ALL LAKES CONVERGED AFTER   2  ITERATIONS
 ALL LAKES CONVERGED AFTER   2  ITERATIONS
 ALL LAKES CONVERGED AFTER   2  ITERATIONS
 ALL LAKES CONVERGED AFTER   2  ITERATIONS
 ALL LAKES CONVERGED AFTER   2  ITERATIONS
 ALL LAKES CONVERGED AFTER   2  ITERATIONS
 ALL LAKES CONVERGED AFTER   1  ITERATIONS
 ALL LAKES CONVERGED AFTER   2  ITERATIONS
 ALL LAKES CONVERGED AFTER   2  ITERATIONS
 ALL LAKES CONVERGED AFTER   2  ITERATIONS
 ALL LAKES CONVERGED AFTER   1  ITERATIONS
 ALL LAKES CONVERGED AFTER   1  ITERATIONS
    36 ITERATIONS FOR TIME STEP  42 IN STRESS PERIOD    1

 MAXIMUM HEAD CHANGE FOR EACH ITERATION:

    HEAD CHANGE   HEAD CHANGE   HEAD CHANGE   HEAD CHANGE   HEAD CHANGE
  LAYER,ROW,COL LAYER,ROW,COL LAYER,ROW,COL LAYER,ROW,COL LAYER,ROW,COL
 ----------------------------------------------------------------------
     0.1297        0.1123        0.1176        0.7138E-01    0.9449E-01
  (  3, 10,  9) (  4,  6,  8) (  5, 10,  8) (  3,  8, 10) (  3, 10,  8)
     0.4567E-01    0.3799E-01    0.2829E-01    0.3783E-01    0.1902E-01
  (  2,  7,  7) (  5, 10,  8) (  3,  8, 10) (  3, 10,  8) (  3,  8, 10)
     0.2302E-01    0.1295E-01    0.1404E-01    0.8095E-02    0.1069E-01
  (  3,  8,  8) (  5,  9,  9) (  5, 10,  8) (  3,  8, 10) (  3, 10,  8)
     0.5156E-02    0.4290E-02    0.3196E-02    0.4269E-02    0.2140E-02
  (  2,  7,  7) (  5, 10,  8) (  3,  8, 10) (  3, 10,  8) (  2,  7, 10)
     0.2595E-02    0.1460E-02    0.1579E-02    0.9074E-03    0.1206E-02
  (  3,  8,  8) (  5,  9,  9) (  5, 10,  8) (  3,  8, 10) (  3, 10,  8)
     0.5792E-03    0.4818E-03    0.3682E-03    0.4838E-03    0.2456E-03
  (  2,  7,  7) (  5, 10,  8) (  3,  8, 10) (  3, 10,  8) (  2,  7,  9)
     0.2966E-03    0.1634E-03    0.1802E-03    0.1081E-03    0.1310E-03
  (  2,  7,  7) (  5,  9,  9) (  5, 10,  8) (  2,  9, 11) (  2, 11,  7)
     0.7403E-04
  (  3,  8,  9)


 HEAD/DRAWDOWN PRINTOUT FLAG = 0     TOTAL BUDGET PRINTOUT FLAG = 0
 CELL-BY-CELL FLOW TERM FLAG = 1

 OUTPUT FLAGS FOR ALL LAYERS ARE THE SAME:
   HEAD    DRAWDOWN  HEAD  DRAWDOWN
 PRINTOUT  PRINTOUT  SAVE    SAVE
 ----------------------------------
     0         0       0       0


     0  LAKE CELLS ARE DRY.

 PERIOD     1     TIME STEP    42     TIME STEP LENGTH  3.6066E+01
 PERIOD TIME  1.0387E+03     TOTAL SIMULATION TIME  1.0387E+03


                 HYDROLOGIC BUDGET SUMMARIES FOR SIMULATED LAKES
     (ALL FLUID FLUXES ARE VOLUMES ADDED TO THE LAKE DURING PRESENT TIME STEP)
     -------------------------------------------------------------------------
 LAKE   STAGE     PRECIP       EVAP       RUNOFF
   1   139.99  2.6148E+06  2.3218E+06  0.0000E+00

            GROUND WATER            SURFACE WATER
 LAKE    INFLOW     OUTFLOW      INFLOW     OUTFLOW
   1  3.5503E+06  0.0000E+00  0.0000E+00  0.0000E+00

         WATER    CONNECTED LAKE   UPDATED     TIME-STEP          STAGE CHANGE
 LAKE     USE         INFLUX        VOLUME    SURFACE AREA   TIME STEP  CUMULATIVE
   1   0.0000E+00   0.0000E+00   2.2869E+08    6.2500E+06   6.1477E-01  2.9991E+01
 --------------------------------------------------------------------------------



            CUMULATIVE HYDROLOGIC BUDGET SUMMARIES FOR SIMULATED LAKES
     (ALL FLUID FLUXES ARE SUMS OF VOLUMES ADDED TO THE LAKE SINCE INITIAL TIME)
     ---------------------------------------------------------------------------
 LAKE       PRECIP       EVAP       RUNOFF
   1     7.5305E+07  6.6865E+07  0.0000E+00

            GROUND WATER            SURFACE WATER
 LAKE    INFLOW     OUTFLOW      INFLOW     OUTFLOW
   1  1.7903E+08  0.0000E+00  0.0000E+00  0.0000E+00

         WATER    CONNECTED LAKE
 LAKE     USE         INFLUX
   1   0.0000E+00   0.0000E+00
 --------------------------------------------------------------------------------

 
 SOLVING FOR HEAD 
 ALL LAKES CONVERGED AFTER   3  ITERATIONS
 ALL LAKES CONVERGED AFTER   3  ITERATIONS
 ALL LAKES CONVERGED AFTER   3  ITERATIONS
 ALL LAKES CONVERGED AFTER   3  ITERATIONS
 ALL LAKES CONVERGED AFTER   3  ITERATIONS
 ALL LAKES CONVERGED AFTER   3  ITERATIONS
 ALL LAKES CONVERGED AFTER   3  ITERATIONS
 ALL LAKES CONVERGED AFTER   3  ITERATIONS
 ALL LAKES CONVERGED AFTER   3  ITERATIONS
 ALL LAKES CONVERGED AFTER   3  ITERATIONS
 ALL LAKES CONVERGED AFTER   2  ITERATIONS
 ALL LAKES CONVERGED AFTER   2  ITERATIONS
 ALL LAKES CONVERGED AFTER   3  ITERATIONS
 ALL LAKES CONVERGED AFTER   2  ITERATIONS
 ALL LAKES CONVERGED AFTER   2  ITERATIONS
 ALL LAKES CONVERGED AFTER   2  ITERATIONS
 ALL LAKES CONVERGED AFTER   2  ITERATIONS
 ALL LAKES CONVERGED AFTER   2  ITERATIONS
 ALL LAKES CONVERGED AFTER   2  ITERATIONS
 ALL LAKES CONVERGED AFTER   2  ITERATIONS
 ALL LAKES CONVERGED AFTER   2  ITERATIONS
 ALL LAKES CONVERGED AFTER   2  ITERATIONS
 ALL LAKES CONVERGED AFTER   2  ITERATIONS
 ALL LAKES CONVERGED AFTER   2  ITERATIONS
 ALL LAKES CONVERGED AFTER   2  ITERATIONS
 ALL LAKES CONVERGED AFTER   2  ITERATIONS
 ALL LAKES CONVERGED AFTER   2  ITERATIONS
 ALL LAKES CONVERGED AFTER   2  ITERATIONS
 ALL LAKES CONVERGED AFTER   2  ITERATIONS
 ALL LAKES CONVERGED AFTER   2  ITERATIONS
 ALL LAKES CONVERGED AFTER   1  ITERATIONS
 ALL LAKES CONVERGED AFTER   2  ITERATIONS
 ALL LAKES CONVERGED AFTER   2  ITERATIONS
 ALL LAKES CONVERGED AFTER   2  ITERATIONS
 ALL LAKES CONVERGED AFTER   1  ITERATIONS
 ALL LAKES CONVERGED AFTER   1  ITERATIONS
    36 ITERATIONS FOR TIME STEP  43 IN STRESS PERIOD    1

 MAXIMUM HEAD CHANGE FOR EACH ITERATION:

    HEAD CHANGE   HEAD CHANGE   HEAD CHANGE   HEAD CHANGE   HEAD CHANGE
  LAYER,ROW,COL LAYER,ROW,COL LAYER,ROW,COL LAYER,ROW,COL LAYER,ROW,COL
 ----------------------------------------------------------------------
     0.1216        0.1063        0.1110        0.6770E-01    0.8972E-01
  (  3,  9,  9) (  4,  6,  8) (  5, 10,  8) (  3,  8, 10) (  3, 10,  8)
     0.4359E-01    0.3638E-01    0.2719E-01    0.3641E-01    0.1841E-01
  (  2,  7,  7) (  5, 10,  8) (  3,  8, 10) (  3, 10,  8) (  3,  8, 10)
     0.2231E-01    0.1260E-01    0.1369E-01    0.7933E-02    0.1048E-01
  (  3,  8,  8) (  5,  9,  9) (  5, 10,  8) (  3,  8, 10) (  3, 10,  8)
     0.5089E-02    0.4232E-02    0.3174E-02    0.4240E-02    0.2158E-02
  (  2,  7,  7) (  5, 10,  8) (  3,  8, 10) (  3, 10,  8) (  3,  8, 10)
     0.2604E-02    0.1469E-02    0.1594E-02    0.9175E-03    0.1226E-02
  (  3,  8,  8) (  5,  9,  9) (  5, 10,  8) (  3,  8, 10) (  3, 10,  8)
     0.5971E-03    0.5019E-03    0.3686E-03    0.4953E-03    0.2607E-03
  (  2,  7,  7) (  5, 10,  8) (  3,  8, 10) (  4, 10,  8) (  3,  8, 10)
     0.3089E-03    0.1644E-03    0.1809E-03    0.1078E-03    0.1308E-03
  (  3,  8,  8) (  5,  9,  9) (  5, 10,  8) (  2,  7, 10) (  2, 11,  7)
     0.8022E-04
  (  2,  9, 11)


 HEAD/DRAWDOWN PRINTOUT FLAG = 0     TOTAL BUDGET PRINTOUT FLAG = 0
 CELL-BY-CELL FLOW TERM FLAG = 1

 OUTPUT FLAGS FOR ALL LAYERS ARE THE SAME:
   HEAD    DRAWDOWN  HEAD  DRAWDOWN
 PRINTOUT  PRINTOUT  SAVE    SAVE
 ----------------------------------
     0         0       0       0


     0  LAKE CELLS ARE DRY.

 PERIOD     1     TIME STEP    43     TIME STEP LENGTH  3.6787E+01
 PERIOD TIME  1.0755E+03     TOTAL SIMULATION TIME  1.0755E+03


                 HYDROLOGIC BUDGET SUMMARIES FOR SIMULATED LAKES
     (ALL FLUID FLUXES ARE VOLUMES ADDED TO THE LAKE DURING PRESENT TIME STEP)
     -------------------------------------------------------------------------
 LAKE   STAGE     PRECIP       EVAP       RUNOFF
   1   140.57  2.6671E+06  2.3682E+06  0.0000E+00

            GROUND WATER            SURFACE WATER
 LAKE    INFLOW     OUTFLOW      INFLOW     OUTFLOW
   1  3.3546E+06  0.0000E+00  0.0000E+00  0.0000E+00

         WATER    CONNECTED LAKE   UPDATED     TIME-STEP          STAGE CHANGE
 LAKE     USE         INFLUX        VOLUME    SURFACE AREA   TIME STEP  CUMULATIVE
   1   0.0000E+00   0.0000E+00   2.3234E+08    6.2500E+06   5.8433E-01  3.0575E+01
 --------------------------------------------------------------------------------



            CUMULATIVE HYDROLOGIC BUDGET SUMMARIES FOR SIMULATED LAKES
     (ALL FLUID FLUXES ARE SUMS OF VOLUMES ADDED TO THE LAKE SINCE INITIAL TIME)
     ---------------------------------------------------------------------------
 LAKE       PRECIP       EVAP       RUNOFF
   1     7.7972E+07  6.9234E+07  0.0000E+00

            GROUND WATER            SURFACE WATER
 LAKE    INFLOW     OUTFLOW      INFLOW     OUTFLOW
   1  1.8238E+08  0.0000E+00  0.0000E+00  0.0000E+00

         WATER    CONNECTED LAKE
 LAKE     USE         INFLUX
   1   0.0000E+00   0.0000E+00
 --------------------------------------------------------------------------------

 
 SOLVING FOR HEAD 
 ALL LAKES CONVERGED AFTER   3  ITERATIONS
 ALL LAKES CONVERGED AFTER   2  ITERATIONS
 ALL LAKES CONVERGED AFTER   2  ITERATIONS
 ALL LAKES CONVERGED AFTER   3  ITERATIONS
 ALL LAKES CONVERGED AFTER   3  ITERATIONS
 ALL LAKES CONVERGED AFTER   3  ITERATIONS
 ALL LAKES CONVERGED AFTER   3  ITERATIONS
 ALL LAKES CONVERGED AFTER   2  ITERATIONS
 ALL LAKES CONVERGED AFTER   2  ITERATIONS
 ALL LAKES CONVERGED AFTER   2  ITERATIONS
 ALL LAKES CONVERGED AFTER   2  ITERATIONS
 ALL LAKES CONVERGED AFTER   3  ITERATIONS
 ALL LAKES CONVERGED AFTER   3  ITERATIONS
 ALL LAKES CONVERGED AFTER   2  ITERATIONS
 ALL LAKES CONVERGED AFTER   2  ITERATIONS
 ALL LAKES CONVERGED AFTER   3  ITERATIONS
 ALL LAKES CONVERGED AFTER   2  ITERATIONS
 ALL LAKES CONVERGED AFTER   2  ITERATIONS
 ALL LAKES CONVERGED AFTER   2  ITERATIONS
 ALL LAKES CONVERGED AFTER   2  ITERATIONS
 ALL LAKES CONVERGED AFTER   2  ITERATIONS
 ALL LAKES CONVERGED AFTER   2  ITERATIONS
 ALL LAKES CONVERGED AFTER   2  ITERATIONS
 ALL LAKES CONVERGED AFTER   2  ITERATIONS
 ALL LAKES CONVERGED AFTER   2  ITERATIONS
 ALL LAKES CONVERGED AFTER   2  ITERATIONS
 ALL LAKES CONVERGED AFTER   2  ITERATIONS
 ALL LAKES CONVERGED AFTER   2  ITERATIONS
 ALL LAKES CONVERGED AFTER   2  ITERATIONS
 ALL LAKES CONVERGED AFTER   2  ITERATIONS
 ALL LAKES CONVERGED AFTER   1  ITERATIONS
 ALL LAKES CONVERGED AFTER   2  ITERATIONS
 ALL LAKES CONVERGED AFTER   2  ITERATIONS
 ALL LAKES CONVERGED AFTER   2  ITERATIONS
 ALL LAKES CONVERGED AFTER   1  ITERATIONS
 ALL LAKES CONVERGED AFTER   1  ITERATIONS
    36 ITERATIONS FOR TIME STEP  44 IN STRESS PERIOD    1

 MAXIMUM HEAD CHANGE FOR EACH ITERATION:

    HEAD CHANGE   HEAD CHANGE   HEAD CHANGE   HEAD CHANGE   HEAD CHANGE
  LAYER,ROW,COL LAYER,ROW,COL LAYER,ROW,COL LAYER,ROW,COL LAYER,ROW,COL
 ----------------------------------------------------------------------
     0.1138        0.1005        0.1045        0.6408E-01    0.8501E-01
  (  3,  9,  9) (  3, 10, 12) (  5, 10,  8) (  3,  8, 10) (  3, 10,  8)
     0.4151E-01    0.3476E-01    0.2609E-01    0.3499E-01    0.1778E-01
  (  2,  7,  7) (  5, 10,  8) (  3,  8, 10) (  3, 10,  8) (  3,  8, 10)
     0.2155E-01    0.1221E-01    0.1331E-01    0.7762E-02    0.1027E-01
  (  3,  8,  8) (  5,  9,  9) (  5, 10,  8) (  3,  8, 10) (  3, 10,  8)
     0.5015E-02    0.4192E-02    0.3144E-02    0.4203E-02    0.2138E-02
  (  2,  7,  7) (  5, 10,  8) (  3,  8, 10) (  3, 10,  8) (  3,  8, 10)
     0.2603E-02    0.1470E-02    0.1594E-02    0.9374E-03    0.1246E-02
  (  3,  8,  8) (  5,  9,  9) (  5, 10,  8) (  3,  8, 10) (  3, 10,  8)
     0.6063E-03    0.5032E-03    0.3789E-03    0.5135E-03    0.2657E-03
  (  2,  7,  7) (  5, 10,  8) (  3,  8, 10) (  3, 10,  8) (  2,  7, 10)
     0.3093E-03    0.1748E-03    0.1955E-03    0.1105E-03    0.1494E-03
  (  3,  8,  8) (  4, 10, 11) (  5, 10,  8) (  3,  8, 10) (  3, 10,  8)
     0.7407E-04
  (  3,  9, 10)


 HEAD/DRAWDOWN PRINTOUT FLAG = 0     TOTAL BUDGET PRINTOUT FLAG = 0
 CELL-BY-CELL FLOW TERM FLAG = 1

 OUTPUT FLAGS FOR ALL LAYERS ARE THE SAME:
   HEAD    DRAWDOWN  HEAD  DRAWDOWN
 PRINTOUT  PRINTOUT  SAVE    SAVE
 ----------------------------------
     0         0       0       0


     0  LAKE CELLS ARE DRY.

 PERIOD     1     TIME STEP    44     TIME STEP LENGTH  3.7523E+01
 PERIOD TIME  1.1130E+03     TOTAL SIMULATION TIME  1.1130E+03


                 HYDROLOGIC BUDGET SUMMARIES FOR SIMULATED LAKES
     (ALL FLUID FLUXES ARE VOLUMES ADDED TO THE LAKE DURING PRESENT TIME STEP)
     -------------------------------------------------------------------------
 LAKE   STAGE     PRECIP       EVAP       RUNOFF
   1   141.13  2.7204E+06  2.4156E+06  0.0000E+00

            GROUND WATER            SURFACE WATER
 LAKE    INFLOW     OUTFLOW      INFLOW     OUTFLOW
   1  3.1619E+06  0.0000E+00  0.0000E+00  0.0000E+00

         WATER    CONNECTED LAKE   UPDATED     TIME-STEP          STAGE CHANGE
 LAKE     USE         INFLUX        VOLUME    SURFACE AREA   TIME STEP  CUMULATIVE
   1   0.0000E+00   0.0000E+00   2.3581E+08    6.2500E+06   5.5449E-01  3.1129E+01
 --------------------------------------------------------------------------------



            CUMULATIVE HYDROLOGIC BUDGET SUMMARIES FOR SIMULATED LAKES
     (ALL FLUID FLUXES ARE SUMS OF VOLUMES ADDED TO THE LAKE SINCE INITIAL TIME)
     ---------------------------------------------------------------------------
 LAKE       PRECIP       EVAP       RUNOFF
   1     8.0692E+07  7.1649E+07  0.0000E+00

            GROUND WATER            SURFACE WATER
 LAKE    INFLOW     OUTFLOW      INFLOW     OUTFLOW
   1  1.8554E+08  0.0000E+00  0.0000E+00  0.0000E+00

         WATER    CONNECTED LAKE
 LAKE     USE         INFLUX
   1   0.0000E+00   0.0000E+00
 --------------------------------------------------------------------------------

 
 SOLVING FOR HEAD 
 ALL LAKES CONVERGED AFTER   3  ITERATIONS
 ALL LAKES CONVERGED AFTER   3  ITERATIONS
 ALL LAKES CONVERGED AFTER   3  ITERATIONS
 ALL LAKES CONVERGED AFTER   3  ITERATIONS
 ALL LAKES CONVERGED AFTER   3  ITERATIONS
 ALL LAKES CONVERGED AFTER   3  ITERATIONS
 ALL LAKES CONVERGED AFTER   3  ITERATIONS
 ALL LAKES CONVERGED AFTER   3  ITERATIONS
 ALL LAKES CONVERGED AFTER   3  ITERATIONS
 ALL LAKES CONVERGED AFTER   2  ITERATIONS
 ALL LAKES CONVERGED AFTER   2  ITERATIONS
 ALL LAKES CONVERGED AFTER   2  ITERATIONS
 ALL LAKES CONVERGED AFTER   3  ITERATIONS
 ALL LAKES CONVERGED AFTER   2  ITERATIONS
 ALL LAKES CONVERGED AFTER   2  ITERATIONS
 ALL LAKES CONVERGED AFTER   2  ITERATIONS
 ALL LAKES CONVERGED AFTER   2  ITERATIONS
 ALL LAKES CONVERGED AFTER   2  ITERATIONS
 ALL LAKES CONVERGED AFTER   2  ITERATIONS
 ALL LAKES CONVERGED AFTER   2  ITERATIONS
 ALL LAKES CONVERGED AFTER   2  ITERATIONS
 ALL LAKES CONVERGED AFTER   2  ITERATIONS
 ALL LAKES CONVERGED AFTER   2  ITERATIONS
 ALL LAKES CONVERGED AFTER   2  ITERATIONS
 ALL LAKES CONVERGED AFTER   2  ITERATIONS
 ALL LAKES CONVERGED AFTER   2  ITERATIONS
 ALL LAKES CONVERGED AFTER   2  ITERATIONS
 ALL LAKES CONVERGED AFTER   2  ITERATIONS
 ALL LAKES CONVERGED AFTER   2  ITERATIONS
 ALL LAKES CONVERGED AFTER   2  ITERATIONS
 ALL LAKES CONVERGED AFTER   1  ITERATIONS
 ALL LAKES CONVERGED AFTER   2  ITERATIONS
 ALL LAKES CONVERGED AFTER   2  ITERATIONS
 ALL LAKES CONVERGED AFTER   2  ITERATIONS
 ALL LAKES CONVERGED AFTER   1  ITERATIONS
 ALL LAKES CONVERGED AFTER   1  ITERATIONS
    36 ITERATIONS FOR TIME STEP  45 IN STRESS PERIOD    1

 MAXIMUM HEAD CHANGE FOR EACH ITERATION:

    HEAD CHANGE   HEAD CHANGE   HEAD CHANGE   HEAD CHANGE   HEAD CHANGE
  LAYER,ROW,COL LAYER,ROW,COL LAYER,ROW,COL LAYER,ROW,COL LAYER,ROW,COL
 ----------------------------------------------------------------------
     0.1063        0.9490E-01    0.9823E-01    0.6052E-01    0.8041E-01
  (  3,  9,  9) (  3, 10, 12) (  5, 10,  8) (  3,  8, 10) (  3, 10,  8)
     0.3945E-01    0.3315E-01    0.2499E-01    0.3354E-01    0.1714E-01
  (  2,  7,  7) (  5, 10,  8) (  3,  8, 10) (  3, 10,  8) (  3,  8, 10)
     0.2079E-01    0.1182E-01    0.1292E-01    0.7560E-02    0.1003E-01
  (  3,  8,  8) (  5,  9,  9) (  5, 10,  8) (  3,  8, 10) (  3, 10,  8)
     0.4912E-02    0.4121E-02    0.3102E-02    0.4165E-02    0.2127E-02
  (  2,  7,  7) (  5, 10,  8) (  3,  8, 10) (  3, 10,  8) (  2,  8, 11)
     0.2585E-02    0.1469E-02    0.1613E-02    0.9375E-03    0.1236E-02
  (  3,  8,  8) (  5,  9,  9) (  5, 10,  8) (  3,  8, 10) (  3, 10,  8)
     0.6157E-03    0.5147E-03    0.3793E-03    0.5138E-03    0.2769E-03
  (  2,  7,  7) (  5, 10,  8) (  3,  8, 10) (  3, 10,  8) (  2,  8, 11)
     0.3187E-03    0.1842E-03    0.1994E-03    0.1209E-03    0.1492E-03
  (  3,  8,  8) (  5,  9,  9) (  5, 10,  8) (  3,  8, 10) (  3, 10,  8)
     0.7228E-04
  (  2,  7, 11)


 HEAD/DRAWDOWN PRINTOUT FLAG = 0     TOTAL BUDGET PRINTOUT FLAG = 0
 CELL-BY-CELL FLOW TERM FLAG = 1

 OUTPUT FLAGS FOR ALL LAYERS ARE THE SAME:
   HEAD    DRAWDOWN  HEAD  DRAWDOWN
 PRINTOUT  PRINTOUT  SAVE    SAVE
 ----------------------------------
     0         0       0       0


     0  LAKE CELLS ARE DRY.

 PERIOD     1     TIME STEP    45     TIME STEP LENGTH  3.8274E+01
 PERIOD TIME  1.1513E+03     TOTAL SIMULATION TIME  1.1513E+03


                 HYDROLOGIC BUDGET SUMMARIES FOR SIMULATED LAKES
     (ALL FLUID FLUXES ARE VOLUMES ADDED TO THE LAKE DURING PRESENT TIME STEP)
     -------------------------------------------------------------------------
 LAKE   STAGE     PRECIP       EVAP       RUNOFF
   1   141.65  2.7748E+06  2.4639E+06  0.0000E+00

            GROUND WATER            SURFACE WATER
 LAKE    INFLOW     OUTFLOW      INFLOW     OUTFLOW
   1  2.9726E+06  0.0000E+00  0.0000E+00  0.0000E+00

         WATER    CONNECTED LAKE   UPDATED     TIME-STEP          STAGE CHANGE
 LAKE     USE         INFLUX        VOLUME    SURFACE AREA   TIME STEP  CUMULATIVE
   1   0.0000E+00   0.0000E+00   2.3909E+08    6.2500E+06   5.2515E-01  3.1655E+01
 --------------------------------------------------------------------------------



            CUMULATIVE HYDROLOGIC BUDGET SUMMARIES FOR SIMULATED LAKES
     (ALL FLUID FLUXES ARE SUMS OF VOLUMES ADDED TO THE LAKE SINCE INITIAL TIME)
     ---------------------------------------------------------------------------
 LAKE       PRECIP       EVAP       RUNOFF
   1     8.3467E+07  7.4113E+07  0.0000E+00

            GROUND WATER            SURFACE WATER
 LAKE    INFLOW     OUTFLOW      INFLOW     OUTFLOW
   1  1.8852E+08  0.0000E+00  0.0000E+00  0.0000E+00

         WATER    CONNECTED LAKE
 LAKE     USE         INFLUX
   1   0.0000E+00   0.0000E+00
 --------------------------------------------------------------------------------

 
 SOLVING FOR HEAD 
 ALL LAKES CONVERGED AFTER   3  ITERATIONS
 ALL LAKES CONVERGED AFTER   3  ITERATIONS
 ALL LAKES CONVERGED AFTER   3  ITERATIONS
 ALL LAKES CONVERGED AFTER   2  ITERATIONS
 ALL LAKES CONVERGED AFTER   2  ITERATIONS
 ALL LAKES CONVERGED AFTER   3  ITERATIONS
 ALL LAKES CONVERGED AFTER   2  ITERATIONS
 ALL LAKES CONVERGED AFTER   3  ITERATIONS
 ALL LAKES CONVERGED AFTER   2  ITERATIONS
 ALL LAKES CONVERGED AFTER   3  ITERATIONS
 ALL LAKES CONVERGED AFTER   2  ITERATIONS
 ALL LAKES CONVERGED AFTER   3  ITERATIONS
 ALL LAKES CONVERGED AFTER   2  ITERATIONS
 ALL LAKES CONVERGED AFTER   2  ITERATIONS
 ALL LAKES CONVERGED AFTER   2  ITERATIONS
 ALL LAKES CONVERGED AFTER   3  ITERATIONS
 ALL LAKES CONVERGED AFTER   2  ITERATIONS
 ALL LAKES CONVERGED AFTER   2  ITERATIONS
 ALL LAKES CONVERGED AFTER   2  ITERATIONS
 ALL LAKES CONVERGED AFTER   2  ITERATIONS
 ALL LAKES CONVERGED AFTER   2  ITERATIONS
 ALL LAKES CONVERGED AFTER   2  ITERATIONS
 ALL LAKES CONVERGED AFTER   2  ITERATIONS
 ALL LAKES CONVERGED AFTER   2  ITERATIONS
 ALL LAKES CONVERGED AFTER   2  ITERATIONS
 ALL LAKES CONVERGED AFTER   2  ITERATIONS
 ALL LAKES CONVERGED AFTER   2  ITERATIONS
 ALL LAKES CONVERGED AFTER   2  ITERATIONS
 ALL LAKES CONVERGED AFTER   2  ITERATIONS
 ALL LAKES CONVERGED AFTER   2  ITERATIONS
 ALL LAKES CONVERGED AFTER   1  ITERATIONS
 ALL LAKES CONVERGED AFTER   2  ITERATIONS
 ALL LAKES CONVERGED AFTER   2  ITERATIONS
 ALL LAKES CONVERGED AFTER   2  ITERATIONS
 ALL LAKES CONVERGED AFTER   1  ITERATIONS
 ALL LAKES CONVERGED AFTER   1  ITERATIONS
    36 ITERATIONS FOR TIME STEP  46 IN STRESS PERIOD    1

 MAXIMUM HEAD CHANGE FOR EACH ITERATION:

    HEAD CHANGE   HEAD CHANGE   HEAD CHANGE   HEAD CHANGE   HEAD CHANGE
  LAYER,ROW,COL LAYER,ROW,COL LAYER,ROW,COL LAYER,ROW,COL LAYER,ROW,COL
 ----------------------------------------------------------------------
     0.9907E-01    0.8942E-01    0.9213E-01    0.5708E-01    0.7589E-01
  (  3,  9,  9) (  3, 10, 12) (  5, 10,  8) (  3,  8, 10) (  3, 10,  8)
     0.3741E-01    0.3154E-01    0.2386E-01    0.3208E-01    0.1646E-01
  (  2,  7,  7) (  5, 10,  8) (  3,  8, 10) (  3, 10,  8) (  3,  8, 10)
     0.2000E-01    0.1143E-01    0.1251E-01    0.7369E-02    0.9766E-02
  (  3,  8,  8) (  5,  9,  9) (  5, 10,  8) (  3,  8, 10) (  3, 10,  8)
     0.4809E-02    0.4050E-02    0.3052E-02    0.4109E-02    0.2108E-02
  (  2,  7,  7) (  5, 10,  8) (  3,  8, 10) (  3, 10,  8) (  3,  8, 10)
     0.2575E-02    0.1477E-02    0.1604E-02    0.9375E-03    0.1256E-02
  (  3,  8,  8) (  5,  9,  9) (  5, 10,  8) (  3,  8, 10) (  3, 10,  8)
     0.6165E-03    0.5139E-03    0.3993E-03    0.5223E-03    0.2710E-03
  (  2,  7,  7) (  5, 10,  8) (  2,  9, 11) (  4, 10,  8) (  3,  8, 10)
     0.3277E-03    0.1946E-03    0.2042E-03    0.1209E-03    0.1593E-03
  (  3,  8,  8) (  5,  9,  9) (  5, 10,  8) (  3,  8, 10) (  3, 10,  8)
     0.8500E-04
  (  2,  7,  7)


 HEAD/DRAWDOWN PRINTOUT FLAG = 0     TOTAL BUDGET PRINTOUT FLAG = 0
 CELL-BY-CELL FLOW TERM FLAG = 1

 OUTPUT FLAGS FOR ALL LAYERS ARE THE SAME:
   HEAD    DRAWDOWN  HEAD  DRAWDOWN
 PRINTOUT  PRINTOUT  SAVE    SAVE
 ----------------------------------
     0         0       0       0


     0  LAKE CELLS ARE DRY.

 PERIOD     1     TIME STEP    46     TIME STEP LENGTH  3.9039E+01
 PERIOD TIME  1.1903E+03     TOTAL SIMULATION TIME  1.1903E+03


                 HYDROLOGIC BUDGET SUMMARIES FOR SIMULATED LAKES
     (ALL FLUID FLUXES ARE VOLUMES ADDED TO THE LAKE DURING PRESENT TIME STEP)
     -------------------------------------------------------------------------
 LAKE   STAGE     PRECIP       EVAP       RUNOFF
   1   142.15  2.8303E+06  2.5131E+06  0.0000E+00

            GROUND WATER            SURFACE WATER
 LAKE    INFLOW     OUTFLOW      INFLOW     OUTFLOW
   1  2.7871E+06  0.0000E+00  0.0000E+00  0.0000E+00

         WATER    CONNECTED LAKE   UPDATED     TIME-STEP          STAGE CHANGE
 LAKE     USE         INFLUX        VOLUME    SURFACE AREA   TIME STEP  CUMULATIVE
   1   0.0000E+00   0.0000E+00   2.4219E+08    6.2500E+06   4.9642E-01  3.2151E+01
 --------------------------------------------------------------------------------



            CUMULATIVE HYDROLOGIC BUDGET SUMMARIES FOR SIMULATED LAKES
     (ALL FLUID FLUXES ARE SUMS OF VOLUMES ADDED TO THE LAKE SINCE INITIAL TIME)
     ---------------------------------------------------------------------------
 LAKE       PRECIP       EVAP       RUNOFF
   1     8.6297E+07  7.6626E+07  0.0000E+00

            GROUND WATER            SURFACE WATER
 LAKE    INFLOW     OUTFLOW      INFLOW     OUTFLOW
   1  1.9130E+08  0.0000E+00  0.0000E+00  0.0000E+00

         WATER    CONNECTED LAKE
 LAKE     USE         INFLUX
   1   0.0000E+00   0.0000E+00
 --------------------------------------------------------------------------------

 
 SOLVING FOR HEAD 
 ALL LAKES CONVERGED AFTER   3  ITERATIONS
 ALL LAKES CONVERGED AFTER   3  ITERATIONS
 ALL LAKES CONVERGED AFTER   3  ITERATIONS
 ALL LAKES CONVERGED AFTER   3  ITERATIONS
 ALL LAKES CONVERGED AFTER   3  ITERATIONS
 ALL LAKES CONVERGED AFTER   3  ITERATIONS
 ALL LAKES CONVERGED AFTER   3  ITERATIONS
 ALL LAKES CONVERGED AFTER   3  ITERATIONS
 ALL LAKES CONVERGED AFTER   2  ITERATIONS
 ALL LAKES CONVERGED AFTER   3  ITERATIONS
 ALL LAKES CONVERGED AFTER   2  ITERATIONS
 ALL LAKES CONVERGED AFTER   2  ITERATIONS
 ALL LAKES CONVERGED AFTER   2  ITERATIONS
 ALL LAKES CONVERGED AFTER   3  ITERATIONS
 ALL LAKES CONVERGED AFTER   2  ITERATIONS
 ALL LAKES CONVERGED AFTER   3  ITERATIONS
 ALL LAKES CONVERGED AFTER   2  ITERATIONS
 ALL LAKES CONVERGED AFTER   2  ITERATIONS
 ALL LAKES CONVERGED AFTER   2  ITERATIONS
 ALL LAKES CONVERGED AFTER   2  ITERATIONS
 ALL LAKES CONVERGED AFTER   2  ITERATIONS
 ALL LAKES CONVERGED AFTER   2  ITERATIONS
 ALL LAKES CONVERGED AFTER   2  ITERATIONS
 ALL LAKES CONVERGED AFTER   2  ITERATIONS
 ALL LAKES CONVERGED AFTER   2  ITERATIONS
 ALL LAKES CONVERGED AFTER   2  ITERATIONS
 ALL LAKES CONVERGED AFTER   2  ITERATIONS
 ALL LAKES CONVERGED AFTER   2  ITERATIONS
 ALL LAKES CONVERGED AFTER   2  ITERATIONS
 ALL LAKES CONVERGED AFTER   2  ITERATIONS
 ALL LAKES CONVERGED AFTER   1  ITERATIONS
 ALL LAKES CONVERGED AFTER   2  ITERATIONS
 ALL LAKES CONVERGED AFTER   2  ITERATIONS
 ALL LAKES CONVERGED AFTER   2  ITERATIONS
 ALL LAKES CONVERGED AFTER   1  ITERATIONS
 ALL LAKES CONVERGED AFTER   1  ITERATIONS
    36 ITERATIONS FOR TIME STEP  47 IN STRESS PERIOD    1

 MAXIMUM HEAD CHANGE FOR EACH ITERATION:

    HEAD CHANGE   HEAD CHANGE   HEAD CHANGE   HEAD CHANGE   HEAD CHANGE
  LAYER,ROW,COL LAYER,ROW,COL LAYER,ROW,COL LAYER,ROW,COL LAYER,ROW,COL
 ----------------------------------------------------------------------
     0.9217E-01    0.8410E-01    0.8626E-01    0.5369E-01    0.7148E-01
  (  3,  9,  9) (  3, 10, 12) (  5, 10,  8) (  3,  8, 10) (  3, 10,  8)
     0.3540E-01    0.2995E-01    0.2275E-01    0.3062E-01    0.1579E-01
  (  2,  7,  7) (  5, 10,  8) (  3,  8, 10) (  3, 10,  8) (  3,  8, 10)
     0.1920E-01    0.1101E-01    0.1208E-01    0.7147E-02    0.9479E-02
  (  3,  8,  8) (  5,  9,  9) (  5, 10,  8) (  3,  8, 10) (  3, 10,  8)
     0.4696E-02    0.3978E-02    0.3010E-02    0.4051E-02    0.2088E-02
  (  2,  7,  7) (  5, 10,  8) (  3,  8, 10) (  3, 10,  8) (  3,  8, 10)
     0.2538E-02    0.1456E-02    0.1608E-02    0.9476E-03    0.1255E-02
  (  3,  8,  8) (  5,  9,  9) (  5, 10,  8) (  3,  8, 10) (  3, 10,  8)
     0.6263E-03    0.5153E-03    0.3994E-03    0.5423E-03    0.2710E-03
  (  2,  7,  7) (  5, 10,  8) (  2,  9, 11) (  3, 10,  8) (  3,  8, 10)
     0.3370E-03    0.1959E-03    0.2045E-03    0.1209E-03    0.1596E-03
  (  3,  8,  8) (  4,  7,  8) (  5, 10,  8) (  3,  8, 10) (  3, 10,  8)
     0.8480E-04
  (  2,  7,  7)


 HEAD/DRAWDOWN PRINTOUT FLAG = 0     TOTAL BUDGET PRINTOUT FLAG = 0
 CELL-BY-CELL FLOW TERM FLAG = 1

 OUTPUT FLAGS FOR ALL LAYERS ARE THE SAME:
   HEAD    DRAWDOWN  HEAD  DRAWDOWN
 PRINTOUT  PRINTOUT  SAVE    SAVE
 ----------------------------------
     0         0       0       0


     0  LAKE CELLS ARE DRY.

 PERIOD     1     TIME STEP    47     TIME STEP LENGTH  3.9820E+01
 PERIOD TIME  1.2301E+03     TOTAL SIMULATION TIME  1.2301E+03


                 HYDROLOGIC BUDGET SUMMARIES FOR SIMULATED LAKES
     (ALL FLUID FLUXES ARE VOLUMES ADDED TO THE LAKE DURING PRESENT TIME STEP)
     -------------------------------------------------------------------------
 LAKE   STAGE     PRECIP       EVAP       RUNOFF
   1   142.62  2.8869E+06  2.5634E+06  0.0000E+00

            GROUND WATER            SURFACE WATER
 LAKE    INFLOW     OUTFLOW      INFLOW     OUTFLOW
   1  2.6065E+06  0.0000E+00  0.0000E+00  0.0000E+00

         WATER    CONNECTED LAKE   UPDATED     TIME-STEP          STAGE CHANGE
 LAKE     USE         INFLUX        VOLUME    SURFACE AREA   TIME STEP  CUMULATIVE
   1   0.0000E+00   0.0000E+00   2.4512E+08    6.2500E+06   4.6856E-01  3.2620E+01
 --------------------------------------------------------------------------------



            CUMULATIVE HYDROLOGIC BUDGET SUMMARIES FOR SIMULATED LAKES
     (ALL FLUID FLUXES ARE SUMS OF VOLUMES ADDED TO THE LAKE SINCE INITIAL TIME)
     ---------------------------------------------------------------------------
 LAKE       PRECIP       EVAP       RUNOFF
   1     8.9184E+07  7.9190E+07  0.0000E+00

            GROUND WATER            SURFACE WATER
 LAKE    INFLOW     OUTFLOW      INFLOW     OUTFLOW
   1  1.9391E+08  0.0000E+00  0.0000E+00  0.0000E+00

         WATER    CONNECTED LAKE
 LAKE     USE         INFLUX
   1   0.0000E+00   0.0000E+00
 --------------------------------------------------------------------------------

 
 SOLVING FOR HEAD 
 ALL LAKES CONVERGED AFTER   3  ITERATIONS
 ALL LAKES CONVERGED AFTER   3  ITERATIONS
 ALL LAKES CONVERGED AFTER   3  ITERATIONS
 ALL LAKES CONVERGED AFTER   3  ITERATIONS
 ALL LAKES CONVERGED AFTER   3  ITERATIONS
 ALL LAKES CONVERGED AFTER   3  ITERATIONS
 ALL LAKES CONVERGED AFTER   3  ITERATIONS
 ALL LAKES CONVERGED AFTER   3  ITERATIONS
 ALL LAKES CONVERGED AFTER   3  ITERATIONS
 ALL LAKES CONVERGED AFTER   2  ITERATIONS
 ALL LAKES CONVERGED AFTER   2  ITERATIONS
 ALL LAKES CONVERGED AFTER   2  ITERATIONS
 ALL LAKES CONVERGED AFTER   2  ITERATIONS
 ALL LAKES CONVERGED AFTER   2  ITERATIONS
 ALL LAKES CONVERGED AFTER   2  ITERATIONS
 ALL LAKES CONVERGED AFTER   2  ITERATIONS
 ALL LAKES CONVERGED AFTER   2  ITERATIONS
 ALL LAKES CONVERGED AFTER   2  ITERATIONS
 ALL LAKES CONVERGED AFTER   2  ITERATIONS
 ALL LAKES CONVERGED AFTER   2  ITERATIONS
 ALL LAKES CONVERGED AFTER   2  ITERATIONS
 ALL LAKES CONVERGED AFTER   2  ITERATIONS
 ALL LAKES CONVERGED AFTER   2  ITERATIONS
 ALL LAKES CONVERGED AFTER   2  ITERATIONS
 ALL LAKES CONVERGED AFTER   2  ITERATIONS
 ALL LAKES CONVERGED AFTER   2  ITERATIONS
 ALL LAKES CONVERGED AFTER   2  ITERATIONS
 ALL LAKES CONVERGED AFTER   2  ITERATIONS
 ALL LAKES CONVERGED AFTER   2  ITERATIONS
 ALL LAKES CONVERGED AFTER   2  ITERATIONS
 ALL LAKES CONVERGED AFTER   1  ITERATIONS
 ALL LAKES CONVERGED AFTER   2  ITERATIONS
 ALL LAKES CONVERGED AFTER   2  ITERATIONS
 ALL LAKES CONVERGED AFTER   2  ITERATIONS
 ALL LAKES CONVERGED AFTER   1  ITERATIONS
 ALL LAKES CONVERGED AFTER   1  ITERATIONS
    36 ITERATIONS FOR TIME STEP  48 IN STRESS PERIOD    1

 MAXIMUM HEAD CHANGE FOR EACH ITERATION:

    HEAD CHANGE   HEAD CHANGE   HEAD CHANGE   HEAD CHANGE   HEAD CHANGE
  LAYER,ROW,COL LAYER,ROW,COL LAYER,ROW,COL LAYER,ROW,COL LAYER,ROW,COL
 ----------------------------------------------------------------------
     0.8563E-01    0.7894E-01    0.8060E-01    0.5042E-01    0.6721E-01
  (  3,  9,  9) (  3, 10, 12) (  5, 10,  8) (  3,  8, 10) (  3, 10,  8)
     0.3346E-01    0.2838E-01    0.2163E-01    0.2916E-01    0.1511E-01
  (  2,  7,  7) (  5, 10,  8) (  3,  8, 10) (  3, 10,  8) (  3,  8, 10)
     0.1838E-01    0.1058E-01    0.1165E-01    0.6915E-02    0.9199E-02
  (  3,  8,  8) (  5,  9,  9) (  5, 10,  8) (  3,  8, 10) (  3, 10,  8)
     0.4574E-02    0.3874E-02    0.2957E-02    0.3977E-02    0.2068E-02
  (  2,  7,  7) (  5, 10,  8) (  3,  8, 10) (  3, 10,  8) (  3,  8, 10)
     0.2519E-02    0.1436E-02    0.1579E-02    0.9375E-03    0.1256E-02
  (  3,  8,  8) (  5,  9,  9) (  5, 10,  8) (  3,  8, 10) (  3, 10,  8)
     0.6256E-03    0.5346E-03    0.3993E-03    0.5422E-03    0.2956E-03
  (  2,  7,  7) (  5, 10,  8) (  3,  8, 10) (  3, 10,  8) (  2,  7, 10)
     0.3376E-03    0.1952E-03    0.2145E-03    0.1209E-03    0.1691E-03
  (  3,  8,  8) (  5,  9,  9) (  5, 10,  8) (  3,  8, 10) (  3, 10,  8)
     0.8491E-04
  (  2,  7,  7)


 HEAD/DRAWDOWN PRINTOUT FLAG = 0     TOTAL BUDGET PRINTOUT FLAG = 0
 CELL-BY-CELL FLOW TERM FLAG = 1

 OUTPUT FLAGS FOR ALL LAYERS ARE THE SAME:
   HEAD    DRAWDOWN  HEAD  DRAWDOWN
 PRINTOUT  PRINTOUT  SAVE    SAVE
 ----------------------------------
     0         0       0       0


     0  LAKE CELLS ARE DRY.

 PERIOD     1     TIME STEP    48     TIME STEP LENGTH  4.0616E+01
 PERIOD TIME  1.2707E+03     TOTAL SIMULATION TIME  1.2707E+03


                 HYDROLOGIC BUDGET SUMMARIES FOR SIMULATED LAKES
     (ALL FLUID FLUXES ARE VOLUMES ADDED TO THE LAKE DURING PRESENT TIME STEP)
     -------------------------------------------------------------------------
 LAKE   STAGE     PRECIP       EVAP       RUNOFF
   1   143.06  2.9447E+06  2.6147E+06  0.0000E+00

            GROUND WATER            SURFACE WATER
 LAKE    INFLOW     OUTFLOW      INFLOW     OUTFLOW
   1  2.4484E+06  1.8089E+04  0.0000E+00  0.0000E+00

         WATER    CONNECTED LAKE   UPDATED     TIME-STEP          STAGE CHANGE
 LAKE     USE         INFLUX        VOLUME    SURFACE AREA   TIME STEP  CUMULATIVE
   1   0.0000E+00   0.0000E+00   2.4788E+08    6.2500E+06   4.4140E-01  3.3061E+01
 --------------------------------------------------------------------------------



            CUMULATIVE HYDROLOGIC BUDGET SUMMARIES FOR SIMULATED LAKES
     (ALL FLUID FLUXES ARE SUMS OF VOLUMES ADDED TO THE LAKE SINCE INITIAL TIME)
     ---------------------------------------------------------------------------
 LAKE       PRECIP       EVAP       RUNOFF
   1     9.2129E+07  8.1804E+07  0.0000E+00

            GROUND WATER            SURFACE WATER
 LAKE    INFLOW     OUTFLOW      INFLOW     OUTFLOW
   1  1.9636E+08  1.8089E+04  0.0000E+00  0.0000E+00

         WATER    CONNECTED LAKE
 LAKE     USE         INFLUX
   1   0.0000E+00   0.0000E+00
 --------------------------------------------------------------------------------

 
 SOLVING FOR HEAD 
 ALL LAKES CONVERGED AFTER   3  ITERATIONS
 ALL LAKES CONVERGED AFTER   3  ITERATIONS
 ALL LAKES CONVERGED AFTER   3  ITERATIONS
 ALL LAKES CONVERGED AFTER   2  ITERATIONS
 ALL LAKES CONVERGED AFTER   2  ITERATIONS
 ALL LAKES CONVERGED AFTER   3  ITERATIONS
 ALL LAKES CONVERGED AFTER   2  ITERATIONS
 ALL LAKES CONVERGED AFTER   2  ITERATIONS
 ALL LAKES CONVERGED AFTER   2  ITERATIONS
 ALL LAKES CONVERGED AFTER   2  ITERATIONS
 ALL LAKES CONVERGED AFTER   2  ITERATIONS
 ALL LAKES CONVERGED AFTER   2  ITERATIONS
 ALL LAKES CONVERGED AFTER   2  ITERATIONS
 ALL LAKES CONVERGED AFTER   3  ITERATIONS
 ALL LAKES CONVERGED AFTER   2  ITERATIONS
 ALL LAKES CONVERGED AFTER   2  ITERATIONS
 ALL LAKES CONVERGED AFTER   2  ITERATIONS
 ALL LAKES CONVERGED AFTER   2  ITERATIONS
 ALL LAKES CONVERGED AFTER   2  ITERATIONS
 ALL LAKES CONVERGED AFTER   2  ITERATIONS
 ALL LAKES CONVERGED AFTER   2  ITERATIONS
 ALL LAKES CONVERGED AFTER   2  ITERATIONS
 ALL LAKES CONVERGED AFTER   2  ITERATIONS
 ALL LAKES CONVERGED AFTER   2  ITERATIONS
 ALL LAKES CONVERGED AFTER   2  ITERATIONS
 ALL LAKES CONVERGED AFTER   2  ITERATIONS
 ALL LAKES CONVERGED AFTER   2  ITERATIONS
 ALL LAKES CONVERGED AFTER   2  ITERATIONS
 ALL LAKES CONVERGED AFTER   2  ITERATIONS
 ALL LAKES CONVERGED AFTER   2  ITERATIONS
 ALL LAKES CONVERGED AFTER   1  ITERATIONS
 ALL LAKES CONVERGED AFTER   2  ITERATIONS
 ALL LAKES CONVERGED AFTER   2  ITERATIONS
 ALL LAKES CONVERGED AFTER   2  ITERATIONS
 ALL LAKES CONVERGED AFTER   1  ITERATIONS
 ALL LAKES CONVERGED AFTER   1  ITERATIONS
    36 ITERATIONS FOR TIME STEP  49 IN STRESS PERIOD    1

 MAXIMUM HEAD CHANGE FOR EACH ITERATION:

    HEAD CHANGE   HEAD CHANGE   HEAD CHANGE   HEAD CHANGE   HEAD CHANGE
  LAYER,ROW,COL LAYER,ROW,COL LAYER,ROW,COL LAYER,ROW,COL LAYER,ROW,COL
 ----------------------------------------------------------------------
     0.7937E-01    0.7395E-01    0.7515E-01    0.4726E-01    0.6305E-01
  (  3,  9,  9) (  3, 10, 12) (  5, 10,  8) (  3,  8, 10) (  3, 10,  8)
     0.3153E-01    0.2684E-01    0.2054E-01    0.2772E-01    0.1442E-01
  (  2,  7,  7) (  5, 10,  8) (  3,  8, 10) (  3, 10,  8) (  3,  8, 10)
     0.1755E-01    0.1015E-01    0.1120E-01    0.6683E-02    0.8900E-02
  (  3,  8,  8) (  5,  9,  9) (  5, 10,  8) (  3,  8, 10) (  3, 10,  8)
     0.4443E-02    0.3763E-02    0.2886E-02    0.3898E-02    0.2032E-02
  (  2,  7,  7) (  5, 10,  8) (  3,  8, 10) (  3, 10,  8) (  2,  7, 10)
     0.2473E-02    0.1414E-02    0.1574E-02    0.9375E-03    0.1256E-02
  (  3,  8,  8) (  5,  9,  9) (  5, 10,  8) (  3,  8, 10) (  3, 10,  8)
     0.6264E-03    0.5260E-03    0.3993E-03    0.5420E-03    0.2909E-03
  (  2,  7,  7) (  5, 10,  8) (  3,  8, 10) (  3, 10,  8) (  3,  8, 10)
     0.3557E-03    0.1967E-03    0.2150E-03    0.1408E-03    0.1791E-03
  (  3,  8,  8) (  5,  9,  9) (  5, 10,  8) (  3,  8, 10) (  3, 10,  8)
     0.8542E-04
  (  2,  7,  7)


 HEAD/DRAWDOWN PRINTOUT FLAG = 0     TOTAL BUDGET PRINTOUT FLAG = 0
 CELL-BY-CELL FLOW TERM FLAG = 1

 OUTPUT FLAGS FOR ALL LAYERS ARE THE SAME:
   HEAD    DRAWDOWN  HEAD  DRAWDOWN
 PRINTOUT  PRINTOUT  SAVE    SAVE
 ----------------------------------
     0         0       0       0


     0  LAKE CELLS ARE DRY.

 PERIOD     1     TIME STEP    49     TIME STEP LENGTH  4.1429E+01
 PERIOD TIME  1.3122E+03     TOTAL SIMULATION TIME  1.3122E+03


                 HYDROLOGIC BUDGET SUMMARIES FOR SIMULATED LAKES
     (ALL FLUID FLUXES ARE VOLUMES ADDED TO THE LAKE DURING PRESENT TIME STEP)
     -------------------------------------------------------------------------
 LAKE   STAGE     PRECIP       EVAP       RUNOFF
   1   143.48  3.0036E+06  2.6670E+06  0.0000E+00

            GROUND WATER            SURFACE WATER
 LAKE    INFLOW     OUTFLOW      INFLOW     OUTFLOW
   1  2.3188E+06  5.9835E+04  0.0000E+00  0.0000E+00

         WATER    CONNECTED LAKE   UPDATED     TIME-STEP          STAGE CHANGE
 LAKE     USE         INFLUX        VOLUME    SURFACE AREA   TIME STEP  CUMULATIVE
   1   0.0000E+00   0.0000E+00   2.5047E+08    6.2500E+06   4.1498E-01  3.3476E+01
 --------------------------------------------------------------------------------



            CUMULATIVE HYDROLOGIC BUDGET SUMMARIES FOR SIMULATED LAKES
     (ALL FLUID FLUXES ARE SUMS OF VOLUMES ADDED TO THE LAKE SINCE INITIAL TIME)
     ---------------------------------------------------------------------------
 LAKE       PRECIP       EVAP       RUNOFF
   1     9.5133E+07  8.4471E+07  0.0000E+00

            GROUND WATER            SURFACE WATER
 LAKE    INFLOW     OUTFLOW      INFLOW     OUTFLOW
   1  1.9868E+08  7.7924E+04  0.0000E+00  0.0000E+00

         WATER    CONNECTED LAKE
 LAKE     USE         INFLUX
   1   0.0000E+00   0.0000E+00
 --------------------------------------------------------------------------------

 
 SOLVING FOR HEAD 
 ALL LAKES CONVERGED AFTER   3  ITERATIONS
 ALL LAKES CONVERGED AFTER   3  ITERATIONS
 ALL LAKES CONVERGED AFTER   3  ITERATIONS
 ALL LAKES CONVERGED AFTER   3  ITERATIONS
 ALL LAKES CONVERGED AFTER   2  ITERATIONS
 ALL LAKES CONVERGED AFTER   3  ITERATIONS
 ALL LAKES CONVERGED AFTER   3  ITERATIONS
 ALL LAKES CONVERGED AFTER   3  ITERATIONS
 ALL LAKES CONVERGED AFTER   2  ITERATIONS
 ALL LAKES CONVERGED AFTER   3  ITERATIONS
 ALL LAKES CONVERGED AFTER   2  ITERATIONS
 ALL LAKES CONVERGED AFTER   2  ITERATIONS
 ALL LAKES CONVERGED AFTER   2  ITERATIONS
 ALL LAKES CONVERGED AFTER   2  ITERATIONS
 ALL LAKES CONVERGED AFTER   2  ITERATIONS
 ALL LAKES CONVERGED AFTER   2  ITERATIONS
 ALL LAKES CONVERGED AFTER   2  ITERATIONS
 ALL LAKES CONVERGED AFTER   2  ITERATIONS
 ALL LAKES CONVERGED AFTER   2  ITERATIONS
 ALL LAKES CONVERGED AFTER   2  ITERATIONS
 ALL LAKES CONVERGED AFTER   2  ITERATIONS
 ALL LAKES CONVERGED AFTER   2  ITERATIONS
 ALL LAKES CONVERGED AFTER   2  ITERATIONS
 ALL LAKES CONVERGED AFTER   2  ITERATIONS
 ALL LAKES CONVERGED AFTER   2  ITERATIONS
 ALL LAKES CONVERGED AFTER   2  ITERATIONS
 ALL LAKES CONVERGED AFTER   2  ITERATIONS
 ALL LAKES CONVERGED AFTER   2  ITERATIONS
 ALL LAKES CONVERGED AFTER   2  ITERATIONS
 ALL LAKES CONVERGED AFTER   2  ITERATIONS
 ALL LAKES CONVERGED AFTER   1  ITERATIONS
 ALL LAKES CONVERGED AFTER   2  ITERATIONS
 ALL LAKES CONVERGED AFTER   2  ITERATIONS
 ALL LAKES CONVERGED AFTER   2  ITERATIONS
 ALL LAKES CONVERGED AFTER   1  ITERATIONS
 ALL LAKES CONVERGED AFTER   1  ITERATIONS
    36 ITERATIONS FOR TIME STEP  50 IN STRESS PERIOD    1

 MAXIMUM HEAD CHANGE FOR EACH ITERATION:

    HEAD CHANGE   HEAD CHANGE   HEAD CHANGE   HEAD CHANGE   HEAD CHANGE
  LAYER,ROW,COL LAYER,ROW,COL LAYER,ROW,COL LAYER,ROW,COL LAYER,ROW,COL
 ----------------------------------------------------------------------
     0.7343E-01    0.6912E-01    0.6995E-01    0.4418E-01    0.5902E-01
  (  3,  9,  9) (  3, 10, 12) (  5, 10,  8) (  3,  8, 10) (  3, 10,  8)
     0.2965E-01    0.2531E-01    0.1944E-01    0.2627E-01    0.1374E-01
  (  2,  7,  7) (  5, 10,  8) (  3,  8, 10) (  3, 10,  8) (  3,  8, 10)
     0.1675E-01    0.9723E-02    0.1073E-01    0.6451E-02    0.8590E-02
  (  3,  8,  8) (  5,  9,  9) (  5, 10,  8) (  3,  8, 10) (  3, 10,  8)
     0.4310E-02    0.3658E-02    0.2814E-02    0.3802E-02    0.1999E-02
  (  2,  7,  7) (  5, 10,  8) (  3,  8, 10) (  3, 10,  8) (  2,  8, 11)
     0.2433E-02    0.1401E-02    0.1555E-02    0.9375E-03    0.1236E-02
  (  3, 10, 10) (  5,  9,  9) (  5, 10,  8) (  3,  8, 10) (  3, 10,  8)
     0.6271E-03    0.5347E-03    0.4154E-03    0.5520E-03    0.2909E-03
  (  2,  7,  7) (  5, 10,  8) (  2,  7,  9) (  4, 10,  8) (  3,  8, 10)
     0.3555E-03    0.1967E-03    0.2155E-03    0.1408E-03    0.1879E-03
  (  3,  8,  8) (  4,  7,  8) (  5, 10,  8) (  3,  8, 10) (  3, 10,  8)
     0.8561E-04
  (  2,  7,  7)


 HEAD/DRAWDOWN PRINTOUT FLAG = 1     TOTAL BUDGET PRINTOUT FLAG = 1
 CELL-BY-CELL FLOW TERM FLAG = 1

 OUTPUT FLAGS FOR EACH LAYER:
          HEAD    DRAWDOWN  HEAD  DRAWDOWN
 LAYER  PRINTOUT  PRINTOUT  SAVE    SAVE
 -----------------------------------------
    1       0         0       0       0
    2       0         0       0       0
    3       0         0       0       0
    4       0         0       0       0
    5       1         0       0       0


     0  LAKE CELLS ARE DRY.

 PERIOD     1     TIME STEP    50     TIME STEP LENGTH  4.2257E+01
 PERIOD TIME  1.3544E+03     TOTAL SIMULATION TIME  1.3544E+03


                 HYDROLOGIC BUDGET SUMMARIES FOR SIMULATED LAKES
     (ALL FLUID FLUXES ARE VOLUMES ADDED TO THE LAKE DURING PRESENT TIME STEP)
     -------------------------------------------------------------------------
 LAKE   STAGE     PRECIP       EVAP       RUNOFF
   1   143.87  3.0636E+06  2.7203E+06  0.0000E+00

            GROUND WATER            SURFACE WATER
 LAKE    INFLOW     OUTFLOW      INFLOW     OUTFLOW
   1  2.1952E+06  1.0213E+05  0.0000E+00  0.0000E+00

         WATER    CONNECTED LAKE   UPDATED     TIME-STEP          STAGE CHANGE
 LAKE     USE         INFLUX        VOLUME    SURFACE AREA   TIME STEP  CUMULATIVE
   1   0.0000E+00   0.0000E+00   2.5291E+08    6.2500E+06   3.8953E-01  3.3865E+01
 --------------------------------------------------------------------------------



            CUMULATIVE HYDROLOGIC BUDGET SUMMARIES FOR SIMULATED LAKES
     (ALL FLUID FLUXES ARE SUMS OF VOLUMES ADDED TO THE LAKE SINCE INITIAL TIME)
     ---------------------------------------------------------------------------
 LAKE       PRECIP       EVAP       RUNOFF
   1     9.8196E+07  8.7192E+07  0.0000E+00

            GROUND WATER            SURFACE WATER
 LAKE    INFLOW     OUTFLOW      INFLOW     OUTFLOW
   1  2.0087E+08  1.8005E+05  0.0000E+00  0.0000E+00

         WATER    CONNECTED LAKE
 LAKE     USE         INFLUX
   1   0.0000E+00   0.0000E+00
 --------------------------------------------------------------------------------

1
              HEAD IN LAYER   5 AT END OF TIME STEP  50 IN STRESS PERIOD    1
  ---------------------------------------------------------------------------

          1      2      3      4      5      6      7      8      9     10
 .........................................................................
   1   160.0  158.9  157.3  155.8  154.2  152.7  151.5  150.8  150.0  149.2
   2   160.0  158.5  156.7  155.0  153.4  151.8  150.6  149.8  149.0  148.2
   3   160.0  158.3  156.2  154.3  152.6  150.9  149.6  148.8  148.1  147.3
   4   160.0  158.2  155.9  153.9  152.0  150.2  148.9  148.1  147.3  146.6
   5   160.0  158.1  155.7  153.6  151.5  149.5  148.1  147.3  146.5  145.9
   6   160.0  158.1  155.6  153.3  151.1  148.6  146.8  146.0  145.4  144.9
   7   160.0  158.1  155.5  153.2  150.7  147.7  144.1  143.9  143.9  143.9
   8   160.0  158.1  155.5  153.1  150.6  147.5  144.0  143.9  143.9  143.9
   9   160.0  158.1  155.5  153.1  150.6  147.4  144.0  143.9  143.9  143.9
  10   160.0  158.1  155.5  153.1  150.6  147.5  144.0  143.9  143.9  143.9
  11   160.0  158.1  155.5  153.2  150.7  147.7  144.1  143.9  143.9  143.9
  12   160.0  158.1  155.6  153.3  151.1  148.6  146.8  146.0  145.4  144.9
  13   160.0  158.1  155.7  153.6  151.5  149.5  148.1  147.3  146.5  145.9
  14   160.0  158.2  155.9  153.9  152.0  150.2  148.9  148.1  147.3  146.6
  15   160.0  158.3  156.2  154.3  152.6  150.9  149.6  148.8  148.1  147.3
  16   160.0  158.5  156.7  155.0  153.4  151.8  150.6  149.8  149.0  148.2
  17   160.0  158.9  157.3  155.8  154.2  152.7  151.5  150.8  150.0  149.2
1
              HEAD IN LAYER   5 AT END OF TIME STEP  50 IN STRESS PERIOD    1
  ---------------------------------------------------------------------------

         11     12     13     14     15     16     17
 ....................................................
   1   148.5  147.3  145.8  144.2  142.7  141.1  140.0
   2   147.5  146.3  144.8  143.3  141.9  140.6  140.0
   3   146.5  145.4  144.0  142.6  141.3  140.2  140.0
   4   145.9  144.8  143.4  142.1  141.0  140.1  140.0
   5   145.2  144.3  143.1  141.8  140.8  140.0  140.0
   6   144.5  143.8  142.8  141.7  140.7  140.0  140.0
   7   143.9  143.5  142.6  141.6  140.6  140.0  140.0
   8   143.9  143.4  142.5  141.5  140.6  140.0  140.0
   9   143.9  143.4  142.5  141.5  140.6  140.0  140.0
  10   143.9  143.4  142.5  141.5  140.6  140.0  140.0
  11   143.9  143.5  142.6  141.6  140.6  140.0  140.0
  12   144.5  143.8  142.8  141.7  140.7  140.0  140.0
  13   145.2  144.3  143.1  141.8  140.8  140.0  140.0
  14   145.9  144.8  143.4  142.1  141.0  140.1  140.0
  15   146.5  145.4  144.0  142.6  141.3  140.2  140.0
  16   147.5  146.3  144.8  143.3  141.9  140.6  140.0
  17   148.5  147.3  145.8  144.2  142.7  141.1  140.0
1
  VOLUMETRIC BUDGET FOR ENTIRE MODEL AT END OF TIME STEP 50 IN STRESS PERIOD   1
  ------------------------------------------------------------------------------

     CUMULATIVE VOLUMES      L**3       RATES FOR THIS TIME STEP      L**3/T
     ------------------                 ------------------------

           IN:                                      IN:
           ---                                      ---
             STORAGE =       31346.7051               STORAGE =           0.0000
       CONSTANT HEAD =   677366400.0000         CONSTANT HEAD =      177295.8750
                  ET =           0.0000                    ET =           0.0000
            RECHARGE =  2356710912.0000              RECHARGE =     1740000.0000
     SPECIFIED FLOWS =           0.0000       SPECIFIED FLOWS =           0.0000
       LAKE  SEEPAGE =      180054.6875         LAKE  SEEPAGE =        2416.8887

            TOTAL IN =  3034288640.0000              TOTAL IN =     1919712.7500

          OUT:                                     OUT:
          ----                                     ----
             STORAGE =   994802944.0000               STORAGE =       34337.1289
       CONSTANT HEAD =     5275644.0000         CONSTANT HEAD =        6803.9795
                  ET =  1833318528.0000                    ET =     1826619.5000
            RECHARGE =           0.0000              RECHARGE =           0.0000
     SPECIFIED FLOWS =           0.0000       SPECIFIED FLOWS =           0.0000
       LAKE  SEEPAGE =   200871952.0000         LAKE  SEEPAGE =       51948.1172

           TOTAL OUT =  3034269184.0000             TOTAL OUT =     1919708.7500

            IN - OUT =       19456.0000              IN - OUT =           4.0000

 PERCENT DISCREPANCY =           0.00     PERCENT DISCREPANCY =           0.00






          TIME SUMMARY AT END OF TIME STEP  50 IN STRESS PERIOD    1
                    SECONDS     MINUTES      HOURS       DAYS        YEARS
                    -----------------------------------------------------------
   TIME STEP LENGTH 3.65102E+06  60850.      1014.2      42.257     0.11569    
 STRESS PERIOD TIME 1.17023E+08 1.95038E+06  32506.      1354.4      3.7082    
         TOTAL TIME 1.17023E+08 1.95038E+06  32506.      1354.4      3.7082    
1
 
 SOLVING FOR HEAD 
 ALL LAKES CONVERGED AFTER   3  ITERATIONS
 ALL LAKES CONVERGED AFTER   3  ITERATIONS
 ALL LAKES CONVERGED AFTER   3  ITERATIONS
 ALL LAKES CONVERGED AFTER   3  ITERATIONS
 ALL LAKES CONVERGED AFTER   2  ITERATIONS
 ALL LAKES CONVERGED AFTER   3  ITERATIONS
 ALL LAKES CONVERGED AFTER   3  ITERATIONS
 ALL LAKES CONVERGED AFTER   2  ITERATIONS
 ALL LAKES CONVERGED AFTER   2  ITERATIONS
 ALL LAKES CONVERGED AFTER   3  ITERATIONS
 ALL LAKES CONVERGED AFTER   2  ITERATIONS
 ALL LAKES CONVERGED AFTER   3  ITERATIONS
 ALL LAKES CONVERGED AFTER   3  ITERATIONS
 ALL LAKES CONVERGED AFTER   2  ITERATIONS
 ALL LAKES CONVERGED AFTER   2  ITERATIONS
 ALL LAKES CONVERGED AFTER   2  ITERATIONS
 ALL LAKES CONVERGED AFTER   2  ITERATIONS
 ALL LAKES CONVERGED AFTER   2  ITERATIONS
 ALL LAKES CONVERGED AFTER   2  ITERATIONS
 ALL LAKES CONVERGED AFTER   2  ITERATIONS
 ALL LAKES CONVERGED AFTER   2  ITERATIONS
 ALL LAKES CONVERGED AFTER   2  ITERATIONS
 ALL LAKES CONVERGED AFTER   2  ITERATIONS
 ALL LAKES CONVERGED AFTER   2  ITERATIONS
 ALL LAKES CONVERGED AFTER   2  ITERATIONS
 ALL LAKES CONVERGED AFTER   2  ITERATIONS
 ALL LAKES CONVERGED AFTER   2  ITERATIONS
 ALL LAKES CONVERGED AFTER   2  ITERATIONS
 ALL LAKES CONVERGED AFTER   2  ITERATIONS
 ALL LAKES CONVERGED AFTER   2  ITERATIONS
 ALL LAKES CONVERGED AFTER   1  ITERATIONS
 ALL LAKES CONVERGED AFTER   2  ITERATIONS
 ALL LAKES CONVERGED AFTER   2  ITERATIONS
 ALL LAKES CONVERGED AFTER   2  ITERATIONS
 ALL LAKES CONVERGED AFTER   1  ITERATIONS
 ALL LAKES CONVERGED AFTER   1  ITERATIONS
 ALL LAKES CONVERGED AFTER   1  ITERATIONS
    37 ITERATIONS FOR TIME STEP  51 IN STRESS PERIOD    1

 MAXIMUM HEAD CHANGE FOR EACH ITERATION:

    HEAD CHANGE   HEAD CHANGE   HEAD CHANGE   HEAD CHANGE   HEAD CHANGE
  LAYER,ROW,COL LAYER,ROW,COL LAYER,ROW,COL LAYER,ROW,COL LAYER,ROW,COL
 ----------------------------------------------------------------------
     0.6785E-01    0.6449E-01    0.6499E-01    0.4125E-01    0.5516E-01
  (  3,  9,  9) (  3, 10, 12) (  5, 10,  8) (  3,  8, 10) (  3, 10,  8)
     0.2783E-01    0.2383E-01    0.1837E-01    0.2487E-01    0.1306E-01
  (  2,  7,  7) (  5, 10,  8) (  3,  8, 10) (  3, 10,  8) (  3,  8, 10)
     0.1592E-01    0.9284E-02    0.1027E-01    0.6189E-02    0.8262E-02
  (  3,  8,  8) (  5,  9,  9) (  5, 10,  8) (  3,  8, 10) (  3, 10,  8)
     0.4160E-02    0.3552E-02    0.2732E-02    0.3710E-02    0.1947E-02
  (  2,  7,  7) (  5, 10,  8) (  3,  8, 10) (  3, 10,  8) (  3,  8, 10)
     0.2378E-02    0.1388E-02    0.1528E-02    0.9173E-03    0.1226E-02
  (  3,  8,  8) (  5,  9,  9) (  5, 10,  8) (  3,  8, 10) (  3, 10,  8)
     0.6266E-03    0.5255E-03    0.4191E-03    0.5600E-03    0.2858E-03
  (  2,  7,  7) (  5, 10,  8) (  3,  8, 10) (  3, 10,  8) (  2,  7, 10)
     0.3524E-03    0.2153E-03    0.2224E-03    0.1408E-03    0.1791E-03
  (  2,  7,  7) (  5,  9,  9) (  5, 10,  8) (  3,  8, 10) (  3, 10,  8)
     0.1018E-03    0.7066E-04
  (  3,  9, 10) (  5, 10,  8)


 HEAD/DRAWDOWN PRINTOUT FLAG = 0     TOTAL BUDGET PRINTOUT FLAG = 0
 CELL-BY-CELL FLOW TERM FLAG = 1

 OUTPUT FLAGS FOR ALL LAYERS ARE THE SAME:
   HEAD    DRAWDOWN  HEAD  DRAWDOWN
 PRINTOUT  PRINTOUT  SAVE    SAVE
 ----------------------------------
     0         0       0       0


     0  LAKE CELLS ARE DRY.

 PERIOD     1     TIME STEP    51     TIME STEP LENGTH  4.3102E+01
 PERIOD TIME  1.3975E+03     TOTAL SIMULATION TIME  1.3975E+03


                 HYDROLOGIC BUDGET SUMMARIES FOR SIMULATED LAKES
     (ALL FLUID FLUXES ARE VOLUMES ADDED TO THE LAKE DURING PRESENT TIME STEP)
     -------------------------------------------------------------------------
 LAKE   STAGE     PRECIP       EVAP       RUNOFF
   1   144.23  3.1249E+06  2.7747E+06  0.0000E+00

            GROUND WATER            SURFACE WATER
 LAKE    INFLOW     OUTFLOW      INFLOW     OUTFLOW
   1  2.0807E+06  1.4797E+05  0.0000E+00  0.0000E+00

         WATER    CONNECTED LAKE   UPDATED     TIME-STEP          STAGE CHANGE
 LAKE     USE         INFLUX        VOLUME    SURFACE AREA   TIME STEP  CUMULATIVE
   1   0.0000E+00   0.0000E+00   2.5519E+08    6.2500E+06   3.6494E-01  3.4230E+01
 --------------------------------------------------------------------------------



            CUMULATIVE HYDROLOGIC BUDGET SUMMARIES FOR SIMULATED LAKES
     (ALL FLUID FLUXES ARE SUMS OF VOLUMES ADDED TO THE LAKE SINCE INITIAL TIME)
     ---------------------------------------------------------------------------
 LAKE       PRECIP       EVAP       RUNOFF
   1     1.0132E+08  8.9966E+07  0.0000E+00

            GROUND WATER            SURFACE WATER
 LAKE    INFLOW     OUTFLOW      INFLOW     OUTFLOW
   1  2.0295E+08  3.2803E+05  0.0000E+00  0.0000E+00

         WATER    CONNECTED LAKE
 LAKE     USE         INFLUX
   1   0.0000E+00   0.0000E+00
 --------------------------------------------------------------------------------

 
 SOLVING FOR HEAD 
 ALL LAKES CONVERGED AFTER   2  ITERATIONS
 ALL LAKES CONVERGED AFTER   3  ITERATIONS
 ALL LAKES CONVERGED AFTER   3  ITERATIONS
 ALL LAKES CONVERGED AFTER   2  ITERATIONS
 ALL LAKES CONVERGED AFTER   3  ITERATIONS
 ALL LAKES CONVERGED AFTER   3  ITERATIONS
 ALL LAKES CONVERGED AFTER   3  ITERATIONS
 ALL LAKES CONVERGED AFTER   2  ITERATIONS
 ALL LAKES CONVERGED AFTER   3  ITERATIONS
 ALL LAKES CONVERGED AFTER   3  ITERATIONS
 ALL LAKES CONVERGED AFTER   2  ITERATIONS
 ALL LAKES CONVERGED AFTER   2  ITERATIONS
 ALL LAKES CONVERGED AFTER   2  ITERATIONS
 ALL LAKES CONVERGED AFTER   2  ITERATIONS
 ALL LAKES CONVERGED AFTER   2  ITERATIONS
 ALL LAKES CONVERGED AFTER   2  ITERATIONS
 ALL LAKES CONVERGED AFTER   2  ITERATIONS
 ALL LAKES CONVERGED AFTER   2  ITERATIONS
 ALL LAKES CONVERGED AFTER   2  ITERATIONS
 ALL LAKES CONVERGED AFTER   2  ITERATIONS
 ALL LAKES CONVERGED AFTER   2  ITERATIONS
 ALL LAKES CONVERGED AFTER   2  ITERATIONS
 ALL LAKES CONVERGED AFTER   2  ITERATIONS
 ALL LAKES CONVERGED AFTER   2  ITERATIONS
 ALL LAKES CONVERGED AFTER   2  ITERATIONS
 ALL LAKES CONVERGED AFTER   2  ITERATIONS
 ALL LAKES CONVERGED AFTER   2  ITERATIONS
 ALL LAKES CONVERGED AFTER   2  ITERATIONS
 ALL LAKES CONVERGED AFTER   2  ITERATIONS
 ALL LAKES CONVERGED AFTER   2  ITERATIONS
 ALL LAKES CONVERGED AFTER   1  ITERATIONS
 ALL LAKES CONVERGED AFTER   2  ITERATIONS
 ALL LAKES CONVERGED AFTER   2  ITERATIONS
 ALL LAKES CONVERGED AFTER   2  ITERATIONS
 ALL LAKES CONVERGED AFTER   1  ITERATIONS
 ALL LAKES CONVERGED AFTER   2  ITERATIONS
 ALL LAKES CONVERGED AFTER   1  ITERATIONS
    37 ITERATIONS FOR TIME STEP  52 IN STRESS PERIOD    1

 MAXIMUM HEAD CHANGE FOR EACH ITERATION:

    HEAD CHANGE   HEAD CHANGE   HEAD CHANGE   HEAD CHANGE   HEAD CHANGE
  LAYER,ROW,COL LAYER,ROW,COL LAYER,ROW,COL LAYER,ROW,COL LAYER,ROW,COL
 ----------------------------------------------------------------------
     0.6254E-01    0.6003E-01    0.6025E-01    0.3841E-01    0.5144E-01
  (  3,  9,  9) (  3, 10, 12) (  5, 10,  8) (  3,  8, 10) (  3, 10,  8)
     0.2606E-01    0.2237E-01    0.1732E-01    0.2347E-01    0.1238E-01
  (  2,  7,  7) (  5, 10,  8) (  3,  8, 10) (  3, 10,  8) (  3,  8, 10)
     0.1511E-01    0.8836E-02    0.9821E-02    0.5937E-02    0.7925E-02
  (  3,  8,  8) (  5,  9,  9) (  5, 10,  8) (  3,  8, 10) (  3, 10,  8)
     0.4009E-02    0.3427E-02    0.2660E-02    0.3603E-02    0.1900E-02
  (  2,  7,  7) (  5, 10,  8) (  3,  8, 10) (  3, 10,  8) (  2,  8, 11)
     0.2314E-02    0.1365E-02    0.1508E-02    0.9072E-03    0.1207E-02
  (  3,  8,  8) (  5,  9,  9) (  5, 10,  8) (  3,  8, 10) (  3, 10,  8)
     0.6083E-03    0.5330E-03    0.4186E-03    0.5516E-03    0.2956E-03
  (  2,  7,  7) (  5, 10,  8) (  3,  8, 10) (  3, 10,  8) (  2,  7, 10)
     0.3560E-03    0.2063E-03    0.2392E-03    0.1409E-03    0.1794E-03
  (  3,  8,  8) (  5,  9,  9) (  5, 10,  8) (  3,  8, 10) (  3, 10,  8)
     0.1071E-03    0.8683E-04
  (  2,  7,  9) (  5,  9,  7)


 HEAD/DRAWDOWN PRINTOUT FLAG = 0     TOTAL BUDGET PRINTOUT FLAG = 0
 CELL-BY-CELL FLOW TERM FLAG = 1

 OUTPUT FLAGS FOR ALL LAYERS ARE THE SAME:
   HEAD    DRAWDOWN  HEAD  DRAWDOWN
 PRINTOUT  PRINTOUT  SAVE    SAVE
 ----------------------------------
     0         0       0       0


     0  LAKE CELLS ARE DRY.

 PERIOD     1     TIME STEP    52     TIME STEP LENGTH  4.3964E+01
 PERIOD TIME  1.4415E+03     TOTAL SIMULATION TIME  1.4415E+03


                 HYDROLOGIC BUDGET SUMMARIES FOR SIMULATED LAKES
     (ALL FLUID FLUXES ARE VOLUMES ADDED TO THE LAKE DURING PRESENT TIME STEP)
     -------------------------------------------------------------------------
 LAKE   STAGE     PRECIP       EVAP       RUNOFF
   1   144.57  3.1874E+06  2.8302E+06  0.0000E+00

            GROUND WATER            SURFACE WATER
 LAKE    INFLOW     OUTFLOW      INFLOW     OUTFLOW
   1  1.9870E+06  2.0889E+05  0.0000E+00  0.0000E+00

         WATER    CONNECTED LAKE   UPDATED     TIME-STEP          STAGE CHANGE
 LAKE     USE         INFLUX        VOLUME    SURFACE AREA   TIME STEP  CUMULATIVE
   1   0.0000E+00   0.0000E+00   2.5732E+08    6.2500E+06   3.4139E-01  3.4572E+01
 --------------------------------------------------------------------------------



            CUMULATIVE HYDROLOGIC BUDGET SUMMARIES FOR SIMULATED LAKES
     (ALL FLUID FLUXES ARE SUMS OF VOLUMES ADDED TO THE LAKE SINCE INITIAL TIME)
     ---------------------------------------------------------------------------
 LAKE       PRECIP       EVAP       RUNOFF
   1     1.0451E+08  9.2796E+07  0.0000E+00

            GROUND WATER            SURFACE WATER
 LAKE    INFLOW     OUTFLOW      INFLOW     OUTFLOW
   1  2.0494E+08  5.3691E+05  0.0000E+00  0.0000E+00

         WATER    CONNECTED LAKE
 LAKE     USE         INFLUX
   1   0.0000E+00   0.0000E+00
 --------------------------------------------------------------------------------

 
 SOLVING FOR HEAD 
 ALL LAKES CONVERGED AFTER   3  ITERATIONS
 ALL LAKES CONVERGED AFTER   3  ITERATIONS
 ALL LAKES CONVERGED AFTER   3  ITERATIONS
 ALL LAKES CONVERGED AFTER   3  ITERATIONS
 ALL LAKES CONVERGED AFTER   2  ITERATIONS
 ALL LAKES CONVERGED AFTER   3  ITERATIONS
 ALL LAKES CONVERGED AFTER   2  ITERATIONS
 ALL LAKES CONVERGED AFTER   2  ITERATIONS
 ALL LAKES CONVERGED AFTER   3  ITERATIONS
 ALL LAKES CONVERGED AFTER   3  ITERATIONS
 ALL LAKES CONVERGED AFTER   2  ITERATIONS
 ALL LAKES CONVERGED AFTER   2  ITERATIONS
 ALL LAKES CONVERGED AFTER   2  ITERATIONS
 ALL LAKES CONVERGED AFTER   2  ITERATIONS
 ALL LAKES CONVERGED AFTER   2  ITERATIONS
 ALL LAKES CONVERGED AFTER   2  ITERATIONS
 ALL LAKES CONVERGED AFTER   2  ITERATIONS
 ALL LAKES CONVERGED AFTER   2  ITERATIONS
 ALL LAKES CONVERGED AFTER   2  ITERATIONS
 ALL LAKES CONVERGED AFTER   2  ITERATIONS
 ALL LAKES CONVERGED AFTER   2  ITERATIONS
 ALL LAKES CONVERGED AFTER   2  ITERATIONS
 ALL LAKES CONVERGED AFTER   2  ITERATIONS
 ALL LAKES CONVERGED AFTER   2  ITERATIONS
 ALL LAKES CONVERGED AFTER   2  ITERATIONS
 ALL LAKES CONVERGED AFTER   2  ITERATIONS
 ALL LAKES CONVERGED AFTER   2  ITERATIONS
 ALL LAKES CONVERGED AFTER   2  ITERATIONS
 ALL LAKES CONVERGED AFTER   2  ITERATIONS
 ALL LAKES CONVERGED AFTER   2  ITERATIONS
 ALL LAKES CONVERGED AFTER   1  ITERATIONS
 ALL LAKES CONVERGED AFTER   2  ITERATIONS
 ALL LAKES CONVERGED AFTER   2  ITERATIONS
 ALL LAKES CONVERGED AFTER   2  ITERATIONS
 ALL LAKES CONVERGED AFTER   1  ITERATIONS
 ALL LAKES CONVERGED AFTER   2  ITERATIONS
    36 ITERATIONS FOR TIME STEP  53 IN STRESS PERIOD    1

 MAXIMUM HEAD CHANGE FOR EACH ITERATION:

    HEAD CHANGE   HEAD CHANGE   HEAD CHANGE   HEAD CHANGE   HEAD CHANGE
  LAYER,ROW,COL LAYER,ROW,COL LAYER,ROW,COL LAYER,ROW,COL LAYER,ROW,COL
 ----------------------------------------------------------------------
     0.5756E-01    0.5577E-01    0.5577E-01    0.3572E-01    0.4787E-01
  (  3,  9,  9) (  3, 10, 12) (  5, 10,  8) (  3,  8, 10) (  3, 10,  8)
     0.2437E-01    0.2098E-01    0.1629E-01    0.2211E-01    0.1172E-01
  (  2,  7,  7) (  5, 10,  8) (  3,  8, 10) (  3, 10,  8) (  3,  8, 10)
     0.1432E-01    0.8400E-02    0.9343E-02    0.5666E-02    0.7585E-02
  (  3,  8,  8) (  5,  9,  9) (  5, 10,  8) (  3,  8, 10) (  3, 10,  8)
     0.3858E-02    0.3311E-02    0.2587E-02    0.3498E-02    0.1857E-02
  (  2,  7,  7) (  5, 10,  8) (  3,  8, 10) (  3, 10,  8) (  3,  8, 10)
     0.2266E-02    0.1314E-02    0.1467E-02    0.8969E-03    0.1196E-02
  (  3,  8,  8) (  5,  9,  9) (  5, 10,  8) (  3,  8, 10) (  3, 10,  8)
     0.5993E-03    0.5250E-03    0.4003E-03    0.5426E-03    0.2909E-03
  (  2,  7,  7) (  5, 10, 10) (  2,  9, 11) (  3, 10,  8) (  3,  8, 10)
     0.3556E-03    0.2146E-03    0.2397E-03    0.1409E-03    0.1991E-03
  (  3,  8,  8) (  4, 10, 11) (  5, 10,  8) (  3,  8, 10) (  3, 10,  8)
     0.9827E-04
  (  2,  7,  8)


 HEAD/DRAWDOWN PRINTOUT FLAG = 0     TOTAL BUDGET PRINTOUT FLAG = 0
 CELL-BY-CELL FLOW TERM FLAG = 1

 OUTPUT FLAGS FOR ALL LAYERS ARE THE SAME:
   HEAD    DRAWDOWN  HEAD  DRAWDOWN
 PRINTOUT  PRINTOUT  SAVE    SAVE
 ----------------------------------
     0         0       0       0


     0  LAKE CELLS ARE DRY.

 PERIOD     1     TIME STEP    53     TIME STEP LENGTH  4.4844E+01
 PERIOD TIME  1.4863E+03     TOTAL SIMULATION TIME  1.4863E+03


                 HYDROLOGIC BUDGET SUMMARIES FOR SIMULATED LAKES
     (ALL FLUID FLUXES ARE VOLUMES ADDED TO THE LAKE DURING PRESENT TIME STEP)
     -------------------------------------------------------------------------
 LAKE   STAGE     PRECIP       EVAP       RUNOFF
   1   144.89  3.2512E+06  2.8868E+06  0.0000E+00

            GROUND WATER            SURFACE WATER
 LAKE    INFLOW     OUTFLOW      INFLOW     OUTFLOW
   1  1.8977E+06  2.6896E+05  0.0000E+00  0.0000E+00

         WATER    CONNECTED LAKE   UPDATED     TIME-STEP          STAGE CHANGE
 LAKE     USE         INFLUX        VOLUME    SURFACE AREA   TIME STEP  CUMULATIVE
   1   0.0000E+00   0.0000E+00   2.5931E+08    6.2500E+06   3.1857E-01  3.4890E+01
 --------------------------------------------------------------------------------



            CUMULATIVE HYDROLOGIC BUDGET SUMMARIES FOR SIMULATED LAKES
     (ALL FLUID FLUXES ARE SUMS OF VOLUMES ADDED TO THE LAKE SINCE INITIAL TIME)
     ---------------------------------------------------------------------------
 LAKE       PRECIP       EVAP       RUNOFF
   1     1.0776E+08  9.5683E+07  0.0000E+00

            GROUND WATER            SURFACE WATER
 LAKE    INFLOW     OUTFLOW      INFLOW     OUTFLOW
   1  2.0684E+08  8.0587E+05  0.0000E+00  0.0000E+00

         WATER    CONNECTED LAKE
 LAKE     USE         INFLUX
   1   0.0000E+00   0.0000E+00
 --------------------------------------------------------------------------------

 
 SOLVING FOR HEAD 
 ALL LAKES CONVERGED AFTER   2  ITERATIONS
 ALL LAKES CONVERGED AFTER   3  ITERATIONS
 ALL LAKES CONVERGED AFTER   3  ITERATIONS
 ALL LAKES CONVERGED AFTER   3  ITERATIONS
 ALL LAKES CONVERGED AFTER   3  ITERATIONS
 ALL LAKES CONVERGED AFTER   3  ITERATIONS
 ALL LAKES CONVERGED AFTER   2  ITERATIONS
 ALL LAKES CONVERGED AFTER   2  ITERATIONS
 ALL LAKES CONVERGED AFTER   2  ITERATIONS
 ALL LAKES CONVERGED AFTER   3  ITERATIONS
 ALL LAKES CONVERGED AFTER   2  ITERATIONS
 ALL LAKES CONVERGED AFTER   3  ITERATIONS
 ALL LAKES CONVERGED AFTER   2  ITERATIONS
 ALL LAKES CONVERGED AFTER   2  ITERATIONS
 ALL LAKES CONVERGED AFTER   2  ITERATIONS
 ALL LAKES CONVERGED AFTER   2  ITERATIONS
 ALL LAKES CONVERGED AFTER   2  ITERATIONS
 ALL LAKES CONVERGED AFTER   2  ITERATIONS
 ALL LAKES CONVERGED AFTER   2  ITERATIONS
 ALL LAKES CONVERGED AFTER   2  ITERATIONS
 ALL LAKES CONVERGED AFTER   2  ITERATIONS
 ALL LAKES CONVERGED AFTER   2  ITERATIONS
 ALL LAKES CONVERGED AFTER   2  ITERATIONS
 ALL LAKES CONVERGED AFTER   2  ITERATIONS
 ALL LAKES CONVERGED AFTER   2  ITERATIONS
 ALL LAKES CONVERGED AFTER   2  ITERATIONS
 ALL LAKES CONVERGED AFTER   2  ITERATIONS
 ALL LAKES CONVERGED AFTER   2  ITERATIONS
 ALL LAKES CONVERGED AFTER   2  ITERATIONS
 ALL LAKES CONVERGED AFTER   2  ITERATIONS
 ALL LAKES CONVERGED AFTER   1  ITERATIONS
 ALL LAKES CONVERGED AFTER   2  ITERATIONS
 ALL LAKES CONVERGED AFTER   2  ITERATIONS
 ALL LAKES CONVERGED AFTER   2  ITERATIONS
 ALL LAKES CONVERGED AFTER   1  ITERATIONS
 ALL LAKES CONVERGED AFTER   2  ITERATIONS
 ALL LAKES CONVERGED AFTER   1  ITERATIONS
    37 ITERATIONS FOR TIME STEP  54 IN STRESS PERIOD    1

 MAXIMUM HEAD CHANGE FOR EACH ITERATION:

    HEAD CHANGE   HEAD CHANGE   HEAD CHANGE   HEAD CHANGE   HEAD CHANGE
  LAYER,ROW,COL LAYER,ROW,COL LAYER,ROW,COL LAYER,ROW,COL LAYER,ROW,COL
 ----------------------------------------------------------------------
     0.5285E-01    0.5169E-01    0.5150E-01    0.3313E-01    0.4445E-01
  (  3,  9,  9) (  3, 10, 12) (  5, 10,  8) (  3,  8, 10) (  3, 10,  8)
     0.2273E-01    0.1962E-01    0.1530E-01    0.2078E-01    0.1106E-01
  (  2,  7,  7) (  5, 10,  8) (  3,  8, 10) (  3, 10,  8) (  3,  8, 10)
     0.1352E-01    0.7954E-02    0.8880E-02    0.5413E-02    0.7236E-02
  (  3,  8,  8) (  5,  9,  9) (  5, 10,  8) (  3,  8, 10) (  3, 10,  8)
     0.3697E-02    0.3184E-02    0.2495E-02    0.3385E-02    0.1797E-02
  (  2,  7,  7) (  5, 10,  8) (  3,  8, 10) (  3, 10,  8) (  3,  8, 10)
     0.2192E-02    0.1289E-02    0.1437E-02    0.8770E-03    0.1186E-02
  (  3,  8,  8) (  5,  9,  9) (  5, 10,  8) (  3,  8, 10) (  3, 10,  8)
     0.5997E-03    0.5222E-03    0.4001E-03    0.5508E-03    0.2907E-03
  (  2,  7,  7) (  5, 10,  8) (  2,  9, 11) (  3, 10,  8) (  3,  8, 10)
     0.3552E-03    0.2154E-03    0.2428E-03    0.1511E-03    0.1893E-03
  (  3, 10, 10) (  5,  9,  9) (  5, 10,  8) (  3,  8, 10) (  3, 10,  8)
     0.1039E-03    0.8620E-04
  (  2,  7,  7) (  5,  8,  7)


 HEAD/DRAWDOWN PRINTOUT FLAG = 0     TOTAL BUDGET PRINTOUT FLAG = 0
 CELL-BY-CELL FLOW TERM FLAG = 1

 OUTPUT FLAGS FOR ALL LAYERS ARE THE SAME:
   HEAD    DRAWDOWN  HEAD  DRAWDOWN
 PRINTOUT  PRINTOUT  SAVE    SAVE
 ----------------------------------
     0         0       0       0


     0  LAKE CELLS ARE DRY.

 PERIOD     1     TIME STEP    54     TIME STEP LENGTH  4.5741E+01
 PERIOD TIME  1.5321E+03     TOTAL SIMULATION TIME  1.5321E+03


                 HYDROLOGIC BUDGET SUMMARIES FOR SIMULATED LAKES
     (ALL FLUID FLUXES ARE VOLUMES ADDED TO THE LAKE DURING PRESENT TIME STEP)
     -------------------------------------------------------------------------
 LAKE   STAGE     PRECIP       EVAP       RUNOFF
   1   145.19  3.3162E+06  2.9445E+06  0.0000E+00

            GROUND WATER            SURFACE WATER
 LAKE    INFLOW     OUTFLOW      INFLOW     OUTFLOW
   1  1.8133E+06  3.2794E+05  0.0000E+00  0.0000E+00

         WATER    CONNECTED LAKE   UPDATED     TIME-STEP          STAGE CHANGE
 LAKE     USE         INFLUX        VOLUME    SURFACE AREA   TIME STEP  CUMULATIVE
   1   0.0000E+00   0.0000E+00   2.6117E+08    6.2500E+06   2.9681E-01  3.5187E+01
 --------------------------------------------------------------------------------



            CUMULATIVE HYDROLOGIC BUDGET SUMMARIES FOR SIMULATED LAKES
     (ALL FLUID FLUXES ARE SUMS OF VOLUMES ADDED TO THE LAKE SINCE INITIAL TIME)
     ---------------------------------------------------------------------------
 LAKE       PRECIP       EVAP       RUNOFF
   1     1.1108E+08  9.8628E+07  0.0000E+00

            GROUND WATER            SURFACE WATER
 LAKE    INFLOW     OUTFLOW      INFLOW     OUTFLOW
   1  2.0865E+08  1.1338E+06  0.0000E+00  0.0000E+00

         WATER    CONNECTED LAKE
 LAKE     USE         INFLUX
   1   0.0000E+00   0.0000E+00
 --------------------------------------------------------------------------------

 
 SOLVING FOR HEAD 
 ALL LAKES CONVERGED AFTER   3  ITERATIONS
 ALL LAKES CONVERGED AFTER   3  ITERATIONS
 ALL LAKES CONVERGED AFTER   3  ITERATIONS
 ALL LAKES CONVERGED AFTER   3  ITERATIONS
 ALL LAKES CONVERGED AFTER   3  ITERATIONS
 ALL LAKES CONVERGED AFTER   3  ITERATIONS
 ALL LAKES CONVERGED AFTER   2  ITERATIONS
 ALL LAKES CONVERGED AFTER   3  ITERATIONS
 ALL LAKES CONVERGED AFTER   2  ITERATIONS
 ALL LAKES CONVERGED AFTER   2  ITERATIONS
 ALL LAKES CONVERGED AFTER   2  ITERATIONS
 ALL LAKES CONVERGED AFTER   2  ITERATIONS
 ALL LAKES CONVERGED AFTER   3  ITERATIONS
 ALL LAKES CONVERGED AFTER   2  ITERATIONS
 ALL LAKES CONVERGED AFTER   2  ITERATIONS
 ALL LAKES CONVERGED AFTER   2  ITERATIONS
 ALL LAKES CONVERGED AFTER   2  ITERATIONS
 ALL LAKES CONVERGED AFTER   2  ITERATIONS
 ALL LAKES CONVERGED AFTER   2  ITERATIONS
 ALL LAKES CONVERGED AFTER   2  ITERATIONS
 ALL LAKES CONVERGED AFTER   2  ITERATIONS
 ALL LAKES CONVERGED AFTER   2  ITERATIONS
 ALL LAKES CONVERGED AFTER   2  ITERATIONS
 ALL LAKES CONVERGED AFTER   2  ITERATIONS
 ALL LAKES CONVERGED AFTER   2  ITERATIONS
 ALL LAKES CONVERGED AFTER   2  ITERATIONS
 ALL LAKES CONVERGED AFTER   2  ITERATIONS
 ALL LAKES CONVERGED AFTER   2  ITERATIONS
 ALL LAKES CONVERGED AFTER   2  ITERATIONS
 ALL LAKES CONVERGED AFTER   2  ITERATIONS
 ALL LAKES CONVERGED AFTER   1  ITERATIONS
 ALL LAKES CONVERGED AFTER   2  ITERATIONS
 ALL LAKES CONVERGED AFTER   2  ITERATIONS
 ALL LAKES CONVERGED AFTER   2  ITERATIONS
 ALL LAKES CONVERGED AFTER   1  ITERATIONS
 ALL LAKES CONVERGED AFTER   2  ITERATIONS
 ALL LAKES CONVERGED AFTER   1  ITERATIONS
    37 ITERATIONS FOR TIME STEP  55 IN STRESS PERIOD    1

 MAXIMUM HEAD CHANGE FOR EACH ITERATION:

    HEAD CHANGE   HEAD CHANGE   HEAD CHANGE   HEAD CHANGE   HEAD CHANGE
  LAYER,ROW,COL LAYER,ROW,COL LAYER,ROW,COL LAYER,ROW,COL LAYER,ROW,COL
 ----------------------------------------------------------------------
     0.4845E-01    0.4782E-01    0.4745E-01    0.3067E-01    0.4119E-01
  (  3,  9,  9) (  3, 10, 12) (  5, 10,  8) (  3,  8, 10) (  3, 10,  8)
     0.2115E-01    0.1832E-01    0.1432E-01    0.1949E-01    0.1041E-01
  (  2,  7,  7) (  5, 10,  8) (  3,  8, 10) (  3, 10,  8) (  3,  8, 10)
     0.1275E-01    0.7528E-02    0.8407E-02    0.5161E-02    0.6908E-02
  (  3,  8,  8) (  5,  9,  9) (  5, 10,  8) (  3,  8, 10) (  3, 10,  8)
     0.3545E-02    0.3048E-02    0.2393E-02    0.3262E-02    0.1736E-02
  (  2,  7,  7) (  5, 10,  8) (  3,  8, 10) (  3, 10,  8) (  3,  8, 10)
     0.2124E-02    0.1256E-02    0.1411E-02    0.8569E-03    0.1147E-02
  (  3, 10, 10) (  5,  9,  9) (  5, 10,  8) (  3,  8, 10) (  3, 10,  8)
     0.5891E-03    0.5104E-03    0.3997E-03    0.5425E-03    0.2859E-03
  (  2,  7,  7) (  5, 10,  8) (  2,  9, 11) (  3, 10,  8) (  2,  7, 10)
     0.3466E-03    0.2153E-03    0.2428E-03    0.1511E-03    0.1893E-03
  (  3,  8,  8) (  5,  9,  9) (  5, 10,  8) (  3,  8, 10) (  3, 10,  8)
     0.1040E-03    0.8967E-04
  (  2,  7,  7) (  5, 10,  8)


 HEAD/DRAWDOWN PRINTOUT FLAG = 0     TOTAL BUDGET PRINTOUT FLAG = 0
 CELL-BY-CELL FLOW TERM FLAG = 1

 OUTPUT FLAGS FOR ALL LAYERS ARE THE SAME:
   HEAD    DRAWDOWN  HEAD  DRAWDOWN
 PRINTOUT  PRINTOUT  SAVE    SAVE
 ----------------------------------
     0         0       0       0


     0  LAKE CELLS ARE DRY.

 PERIOD     1     TIME STEP    55     TIME STEP LENGTH  4.6655E+01
 PERIOD TIME  1.5787E+03     TOTAL SIMULATION TIME  1.5787E+03


                 HYDROLOGIC BUDGET SUMMARIES FOR SIMULATED LAKES
     (ALL FLUID FLUXES ARE VOLUMES ADDED TO THE LAKE DURING PRESENT TIME STEP)
     -------------------------------------------------------------------------
 LAKE   STAGE     PRECIP       EVAP       RUNOFF
   1   145.46  3.3825E+06  3.0034E+06  0.0000E+00

            GROUND WATER            SURFACE WATER
 LAKE    INFLOW     OUTFLOW      INFLOW     OUTFLOW
   1  1.7416E+06  3.9355E+05  0.0000E+00  0.0000E+00

         WATER    CONNECTED LAKE   UPDATED     TIME-STEP          STAGE CHANGE
 LAKE     USE         INFLUX        VOLUME    SURFACE AREA   TIME STEP  CUMULATIVE
   1   0.0000E+00   0.0000E+00   2.6290E+08    6.2500E+06   2.7604E-01  3.5463E+01
 --------------------------------------------------------------------------------



            CUMULATIVE HYDROLOGIC BUDGET SUMMARIES FOR SIMULATED LAKES
     (ALL FLUID FLUXES ARE SUMS OF VOLUMES ADDED TO THE LAKE SINCE INITIAL TIME)
     ---------------------------------------------------------------------------
 LAKE       PRECIP       EVAP       RUNOFF
   1     1.1446E+08  1.0163E+08  0.0000E+00

            GROUND WATER            SURFACE WATER
 LAKE    INFLOW     OUTFLOW      INFLOW     OUTFLOW
   1  2.1039E+08  1.5274E+06  0.0000E+00  0.0000E+00

         WATER    CONNECTED LAKE
 LAKE     USE         INFLUX
   1   0.0000E+00   0.0000E+00
 --------------------------------------------------------------------------------

 
 SOLVING FOR HEAD 
 ALL LAKES CONVERGED AFTER   3  ITERATIONS
 ALL LAKES CONVERGED AFTER   3  ITERATIONS
 ALL LAKES CONVERGED AFTER   3  ITERATIONS
 ALL LAKES CONVERGED AFTER   3  ITERATIONS
 ALL LAKES CONVERGED AFTER   2  ITERATIONS
 ALL LAKES CONVERGED AFTER   2  ITERATIONS
 ALL LAKES CONVERGED AFTER   3  ITERATIONS
 ALL LAKES CONVERGED AFTER   2  ITERATIONS
 ALL LAKES CONVERGED AFTER   2  ITERATIONS
 ALL LAKES CONVERGED AFTER   3  ITERATIONS
 ALL LAKES CONVERGED AFTER   2  ITERATIONS
 ALL LAKES CONVERGED AFTER   2  ITERATIONS
 ALL LAKES CONVERGED AFTER   2  ITERATIONS
 ALL LAKES CONVERGED AFTER   3  ITERATIONS
 ALL LAKES CONVERGED AFTER   2  ITERATIONS
 ALL LAKES CONVERGED AFTER   2  ITERATIONS
 ALL LAKES CONVERGED AFTER   2  ITERATIONS
 ALL LAKES CONVERGED AFTER   2  ITERATIONS
 ALL LAKES CONVERGED AFTER   2  ITERATIONS
 ALL LAKES CONVERGED AFTER   2  ITERATIONS
 ALL LAKES CONVERGED AFTER   2  ITERATIONS
 ALL LAKES CONVERGED AFTER   2  ITERATIONS
 ALL LAKES CONVERGED AFTER   2  ITERATIONS
 ALL LAKES CONVERGED AFTER   2  ITERATIONS
 ALL LAKES CONVERGED AFTER   2  ITERATIONS
 ALL LAKES CONVERGED AFTER   2  ITERATIONS
 ALL LAKES CONVERGED AFTER   2  ITERATIONS
 ALL LAKES CONVERGED AFTER   2  ITERATIONS
 ALL LAKES CONVERGED AFTER   2  ITERATIONS
 ALL LAKES CONVERGED AFTER   2  ITERATIONS
 ALL LAKES CONVERGED AFTER   1  ITERATIONS
 ALL LAKES CONVERGED AFTER   2  ITERATIONS
 ALL LAKES CONVERGED AFTER   2  ITERATIONS
 ALL LAKES CONVERGED AFTER   2  ITERATIONS
 ALL LAKES CONVERGED AFTER   1  ITERATIONS
 ALL LAKES CONVERGED AFTER   2  ITERATIONS
 ALL LAKES CONVERGED AFTER   1  ITERATIONS
    37 ITERATIONS FOR TIME STEP  56 IN STRESS PERIOD    1

 MAXIMUM HEAD CHANGE FOR EACH ITERATION:

    HEAD CHANGE   HEAD CHANGE   HEAD CHANGE   HEAD CHANGE   HEAD CHANGE
  LAYER,ROW,COL LAYER,ROW,COL LAYER,ROW,COL LAYER,ROW,COL LAYER,ROW,COL
 ----------------------------------------------------------------------
     0.4433E-01    0.4414E-01    0.4364E-01    0.2833E-01    0.3809E-01
  (  3,  9,  9) (  3, 10, 12) (  5, 10,  8) (  3,  8, 10) (  3, 10,  8)
     0.1964E-01    0.1707E-01    0.1340E-01    0.1824E-01    0.9778E-02
  (  2,  7,  7) (  5, 10,  8) (  3,  8, 10) (  3, 10,  8) (  3,  8, 10)
     0.1197E-01    0.7101E-02    0.7962E-02    0.4899E-02    0.6559E-02
  (  3,  8,  8) (  5,  9,  9) (  5, 10,  8) (  3,  8, 10) (  3, 10,  8)
     0.3385E-02    0.2931E-02    0.2291E-02    0.3130E-02    0.1676E-02
  (  2,  7,  7) (  5, 10,  8) (  3,  8, 10) (  3, 10,  8) (  3,  8, 10)
     0.2051E-02    0.1222E-02    0.1367E-02    0.8281E-03    0.1118E-02
  (  3,  8,  8) (  5,  9,  9) (  5, 10,  8) (  2,  8, 11) (  3, 10,  8)
     0.5876E-03    0.4911E-03    0.3982E-03    0.5413E-03    0.2968E-03
  (  2,  7,  7) (  5, 10,  8) (  3,  8, 10) (  3, 10,  8) (  2,  8, 11)
     0.3558E-03    0.2063E-03    0.2287E-03    0.1511E-03    0.1896E-03
  (  3, 10, 10) (  5,  9,  9) (  5, 10,  8) (  3,  8, 10) (  5, 10,  8)
     0.1071E-03    0.8686E-04
  (  2,  7, 10) (  5,  9,  7)


 HEAD/DRAWDOWN PRINTOUT FLAG = 0     TOTAL BUDGET PRINTOUT FLAG = 0
 CELL-BY-CELL FLOW TERM FLAG = 1

 OUTPUT FLAGS FOR ALL LAYERS ARE THE SAME:
   HEAD    DRAWDOWN  HEAD  DRAWDOWN
 PRINTOUT  PRINTOUT  SAVE    SAVE
 ----------------------------------
     0         0       0       0


     0  LAKE CELLS ARE DRY.

 PERIOD     1     TIME STEP    56     TIME STEP LENGTH  4.7588E+01
 PERIOD TIME  1.6263E+03     TOTAL SIMULATION TIME  1.6263E+03


                 HYDROLOGIC BUDGET SUMMARIES FOR SIMULATED LAKES
     (ALL FLUID FLUXES ARE VOLUMES ADDED TO THE LAKE DURING PRESENT TIME STEP)
     -------------------------------------------------------------------------
 LAKE   STAGE     PRECIP       EVAP       RUNOFF
   1   145.72  3.4502E+06  3.0635E+06  0.0000E+00

            GROUND WATER            SURFACE WATER
 LAKE    INFLOW     OUTFLOW      INFLOW     OUTFLOW
   1  1.6740E+06  4.5743E+05  0.0000E+00  0.0000E+00

         WATER    CONNECTED LAKE   UPDATED     TIME-STEP          STAGE CHANGE
 LAKE     USE         INFLUX        VOLUME    SURFACE AREA   TIME STEP  CUMULATIVE
   1   0.0000E+00   0.0000E+00   2.6450E+08    6.2500E+06   2.5618E-01  3.5719E+01
 --------------------------------------------------------------------------------



            CUMULATIVE HYDROLOGIC BUDGET SUMMARIES FOR SIMULATED LAKES
     (ALL FLUID FLUXES ARE SUMS OF VOLUMES ADDED TO THE LAKE SINCE INITIAL TIME)
     ---------------------------------------------------------------------------
 LAKE       PRECIP       EVAP       RUNOFF
   1     1.1791E+08  1.0469E+08  0.0000E+00

            GROUND WATER            SURFACE WATER
 LAKE    INFLOW     OUTFLOW      INFLOW     OUTFLOW
   1  2.1207E+08  1.9848E+06  0.0000E+00  0.0000E+00

         WATER    CONNECTED LAKE
 LAKE     USE         INFLUX
   1   0.0000E+00   0.0000E+00
 --------------------------------------------------------------------------------

 
 SOLVING FOR HEAD 
 ALL LAKES CONVERGED AFTER   3  ITERATIONS
 ALL LAKES CONVERGED AFTER   3  ITERATIONS
 ALL LAKES CONVERGED AFTER   3  ITERATIONS
 ALL LAKES CONVERGED AFTER   3  ITERATIONS
 ALL LAKES CONVERGED AFTER   2  ITERATIONS
 ALL LAKES CONVERGED AFTER   2  ITERATIONS
 ALL LAKES CONVERGED AFTER   3  ITERATIONS
 ALL LAKES CONVERGED AFTER   2  ITERATIONS
 ALL LAKES CONVERGED AFTER   2  ITERATIONS
 ALL LAKES CONVERGED AFTER   2  ITERATIONS
 ALL LAKES CONVERGED AFTER   2  ITERATIONS
 ALL LAKES CONVERGED AFTER   3  ITERATIONS
 ALL LAKES CONVERGED AFTER   2  ITERATIONS
 ALL LAKES CONVERGED AFTER   2  ITERATIONS
 ALL LAKES CONVERGED AFTER   2  ITERATIONS
 ALL LAKES CONVERGED AFTER   2  ITERATIONS
 ALL LAKES CONVERGED AFTER   2  ITERATIONS
 ALL LAKES CONVERGED AFTER   2  ITERATIONS
 ALL LAKES CONVERGED AFTER   2  ITERATIONS
 ALL LAKES CONVERGED AFTER   2  ITERATIONS
 ALL LAKES CONVERGED AFTER   2  ITERATIONS
 ALL LAKES CONVERGED AFTER   2  ITERATIONS
 ALL LAKES CONVERGED AFTER   2  ITERATIONS
 ALL LAKES CONVERGED AFTER   2  ITERATIONS
 ALL LAKES CONVERGED AFTER   2  ITERATIONS
 ALL LAKES CONVERGED AFTER   2  ITERATIONS
 ALL LAKES CONVERGED AFTER   2  ITERATIONS
 ALL LAKES CONVERGED AFTER   2  ITERATIONS
 ALL LAKES CONVERGED AFTER   2  ITERATIONS
 ALL LAKES CONVERGED AFTER   2  ITERATIONS
 ALL LAKES CONVERGED AFTER   1  ITERATIONS
 ALL LAKES CONVERGED AFTER   2  ITERATIONS
 ALL LAKES CONVERGED AFTER   2  ITERATIONS
 ALL LAKES CONVERGED AFTER   2  ITERATIONS
 ALL LAKES CONVERGED AFTER   1  ITERATIONS
 ALL LAKES CONVERGED AFTER   2  ITERATIONS
 ALL LAKES CONVERGED AFTER   1  ITERATIONS
    37 ITERATIONS FOR TIME STEP  57 IN STRESS PERIOD    1

 MAXIMUM HEAD CHANGE FOR EACH ITERATION:

    HEAD CHANGE   HEAD CHANGE   HEAD CHANGE   HEAD CHANGE   HEAD CHANGE
  LAYER,ROW,COL LAYER,ROW,COL LAYER,ROW,COL LAYER,ROW,COL LAYER,ROW,COL
 ----------------------------------------------------------------------
     0.4048E-01    0.4065E-01    0.4006E-01    0.2611E-01    0.3514E-01
  (  3,  9,  9) (  2, 10, 12) (  5, 10,  8) (  3,  8, 10) (  3, 10,  8)
     0.1821E-01    0.1584E-01    0.1247E-01    0.1701E-01    0.9175E-02
  (  2,  7,  7) (  5, 10,  8) (  3,  8, 10) (  3, 10,  8) (  3,  8, 10)
     0.1125E-01    0.6689E-02    0.7514E-02    0.4637E-02    0.6220E-02
  (  3,  8,  8) (  5,  9,  9) (  5, 10,  8) (  3,  8, 10) (  3, 10,  8)
     0.3215E-02    0.2792E-02    0.2189E-02    0.2997E-02    0.1616E-02
  (  2,  7,  7) (  5, 10,  8) (  3,  8, 10) (  3, 10,  8) (  3,  8, 10)
     0.1985E-02    0.1170E-02    0.1315E-02    0.8166E-03    0.1087E-02
  (  3,  8,  8) (  5,  9,  9) (  5, 10,  8) (  3,  8, 10) (  3, 10,  8)
     0.5693E-03    0.4984E-03    0.3787E-03    0.5242E-03    0.2968E-03
  (  2,  7,  7) (  5, 10,  8) (  3,  8, 10) (  3, 10,  8) (  2,  8, 11)
     0.3558E-03    0.2063E-03    0.2287E-03    0.1511E-03    0.1896E-03
  (  3, 10, 10) (  5,  9,  9) (  5, 10,  8) (  3,  8, 10) (  5, 10,  8)
     0.1036E-03    0.8628E-04
  (  2,  7,  7) (  5,  8,  7)


 HEAD/DRAWDOWN PRINTOUT FLAG = 0     TOTAL BUDGET PRINTOUT FLAG = 0
 CELL-BY-CELL FLOW TERM FLAG = 1

 OUTPUT FLAGS FOR ALL LAYERS ARE THE SAME:
   HEAD    DRAWDOWN  HEAD  DRAWDOWN
 PRINTOUT  PRINTOUT  SAVE    SAVE
 ----------------------------------
     0         0       0       0


     0  LAKE CELLS ARE DRY.

 PERIOD     1     TIME STEP    57     TIME STEP LENGTH  4.8540E+01
 PERIOD TIME  1.6749E+03     TOTAL SIMULATION TIME  1.6749E+03


                 HYDROLOGIC BUDGET SUMMARIES FOR SIMULATED LAKES
     (ALL FLUID FLUXES ARE VOLUMES ADDED TO THE LAKE DURING PRESENT TIME STEP)
     -------------------------------------------------------------------------
 LAKE   STAGE     PRECIP       EVAP       RUNOFF
   1   145.96  3.5192E+06  3.1248E+06  0.0000E+00

            GROUND WATER            SURFACE WATER
 LAKE    INFLOW     OUTFLOW      INFLOW     OUTFLOW
   1  1.6104E+06  5.1960E+05  0.0000E+00  0.0000E+00

         WATER    CONNECTED LAKE   UPDATED     TIME-STEP          STAGE CHANGE
 LAKE     USE         INFLUX        VOLUME    SURFACE AREA   TIME STEP  CUMULATIVE
   1   0.0000E+00   0.0000E+00   2.6598E+08    6.2500E+06   2.3724E-01  3.5957E+01
 --------------------------------------------------------------------------------



            CUMULATIVE HYDROLOGIC BUDGET SUMMARIES FOR SIMULATED LAKES
     (ALL FLUID FLUXES ARE SUMS OF VOLUMES ADDED TO THE LAKE SINCE INITIAL TIME)
     ---------------------------------------------------------------------------
 LAKE       PRECIP       EVAP       RUNOFF
   1     1.2143E+08  1.0782E+08  0.0000E+00

            GROUND WATER            SURFACE WATER
 LAKE    INFLOW     OUTFLOW      INFLOW     OUTFLOW
   1  2.1368E+08  2.5044E+06  0.0000E+00  0.0000E+00

         WATER    CONNECTED LAKE
 LAKE     USE         INFLUX
   1   0.0000E+00   0.0000E+00
 --------------------------------------------------------------------------------

 
 SOLVING FOR HEAD 
 ALL LAKES CONVERGED AFTER   3  ITERATIONS
 ALL LAKES CONVERGED AFTER   3  ITERATIONS
 ALL LAKES CONVERGED AFTER   2  ITERATIONS
 ALL LAKES CONVERGED AFTER   2  ITERATIONS
 ALL LAKES CONVERGED AFTER   2  ITERATIONS
 ALL LAKES CONVERGED AFTER   2  ITERATIONS
 ALL LAKES CONVERGED AFTER   2  ITERATIONS
 ALL LAKES CONVERGED AFTER   2  ITERATIONS
 ALL LAKES CONVERGED AFTER   2  ITERATIONS
 ALL LAKES CONVERGED AFTER   2  ITERATIONS
 ALL LAKES CONVERGED AFTER   2  ITERATIONS
 ALL LAKES CONVERGED AFTER   2  ITERATIONS
 ALL LAKES CONVERGED AFTER   2  ITERATIONS
 ALL LAKES CONVERGED AFTER   2  ITERATIONS
 ALL LAKES CONVERGED AFTER   2  ITERATIONS
 ALL LAKES CONVERGED AFTER   2  ITERATIONS
 ALL LAKES CONVERGED AFTER   2  ITERATIONS
 ALL LAKES CONVERGED AFTER   2  ITERATIONS
 ALL LAKES CONVERGED AFTER   2  ITERATIONS
 ALL LAKES CONVERGED AFTER   2  ITERATIONS
 ALL LAKES CONVERGED AFTER   2  ITERATIONS
 ALL LAKES CONVERGED AFTER   2  ITERATIONS
 ALL LAKES CONVERGED AFTER   2  ITERATIONS
 ALL LAKES CONVERGED AFTER   2  ITERATIONS
 ALL LAKES CONVERGED AFTER   2  ITERATIONS
 ALL LAKES CONVERGED AFTER   2  ITERATIONS
 ALL LAKES CONVERGED AFTER   2  ITERATIONS
 ALL LAKES CONVERGED AFTER   2  ITERATIONS
 ALL LAKES CONVERGED AFTER   2  ITERATIONS
 ALL LAKES CONVERGED AFTER   2  ITERATIONS
 ALL LAKES CONVERGED AFTER   1  ITERATIONS
 ALL LAKES CONVERGED AFTER   2  ITERATIONS
 ALL LAKES CONVERGED AFTER   2  ITERATIONS
 ALL LAKES CONVERGED AFTER   2  ITERATIONS
 ALL LAKES CONVERGED AFTER   1  ITERATIONS
 ALL LAKES CONVERGED AFTER   2  ITERATIONS
 ALL LAKES CONVERGED AFTER   1  ITERATIONS
    37 ITERATIONS FOR TIME STEP  58 IN STRESS PERIOD    1

 MAXIMUM HEAD CHANGE FOR EACH ITERATION:

    HEAD CHANGE   HEAD CHANGE   HEAD CHANGE   HEAD CHANGE   HEAD CHANGE
  LAYER,ROW,COL LAYER,ROW,COL LAYER,ROW,COL LAYER,ROW,COL LAYER,ROW,COL
 ----------------------------------------------------------------------
     0.3686E-01    0.3735E-01    0.3669E-01    0.2402E-01    0.3236E-01
  (  3,  9,  9) (  2, 10, 12) (  5, 10,  8) (  3,  8, 10) (  3, 10,  8)
     0.1683E-01    0.1471E-01    0.1162E-01    0.1584E-01    0.8573E-02
  (  2,  7,  7) (  5, 10,  8) (  3,  8, 10) (  3, 10,  8) (  3,  8, 10)
     0.1051E-01    0.6274E-02    0.7055E-02    0.4385E-02    0.5881E-02
  (  3,  8,  8) (  5,  9,  9) (  5, 10,  8) (  3,  8, 10) (  3, 10,  8)
     0.3054E-02    0.2656E-02    0.2105E-02    0.2871E-02    0.1555E-02
  (  2,  7,  7) (  5, 10,  8) (  3,  8, 10) (  3, 10,  8) (  2,  8, 11)
     0.1893E-02    0.1135E-02    0.1289E-02    0.7860E-03    0.1067E-02
  (  3,  8,  8) (  5,  9,  9) (  5, 10,  8) (  3,  8, 10) (  3, 10,  8)
     0.5596E-03    0.4774E-03    0.3877E-03    0.5124E-03    0.2908E-03
  (  2,  7,  7) (  5, 10,  8) (  3,  8, 10) (  3, 10,  8) (  3,  8, 10)
     0.3556E-03    0.2063E-03    0.2286E-03    0.1380E-03    0.1962E-03
  (  3,  8,  8) (  5,  9,  9) (  5, 10,  8) (  2,  8, 11) (  2,  9,  7)
     0.1039E-03    0.8628E-04
  (  2,  7,  7) (  5,  8,  7)


 HEAD/DRAWDOWN PRINTOUT FLAG = 0     TOTAL BUDGET PRINTOUT FLAG = 0
 CELL-BY-CELL FLOW TERM FLAG = 1

 OUTPUT FLAGS FOR ALL LAYERS ARE THE SAME:
   HEAD    DRAWDOWN  HEAD  DRAWDOWN
 PRINTOUT  PRINTOUT  SAVE    SAVE
 ----------------------------------
     0         0       0       0


     0  LAKE CELLS ARE DRY.

 PERIOD     1     TIME STEP    58     TIME STEP LENGTH  4.9511E+01
 PERIOD TIME  1.7244E+03     TOTAL SIMULATION TIME  1.7244E+03


                 HYDROLOGIC BUDGET SUMMARIES FOR SIMULATED LAKES
     (ALL FLUID FLUXES ARE VOLUMES ADDED TO THE LAKE DURING PRESENT TIME STEP)
     -------------------------------------------------------------------------
 LAKE   STAGE     PRECIP       EVAP       RUNOFF
   1   146.18  3.5896E+06  3.1873E+06  0.0000E+00

            GROUND WATER            SURFACE WATER
 LAKE    INFLOW     OUTFLOW      INFLOW     OUTFLOW
   1  1.5511E+06  5.8002E+05  0.0000E+00  0.0000E+00

         WATER    CONNECTED LAKE   UPDATED     TIME-STEP          STAGE CHANGE
 LAKE     USE         INFLUX        VOLUME    SURFACE AREA   TIME STEP  CUMULATIVE
   1   0.0000E+00   0.0000E+00   2.6735E+08    6.2500E+06   2.1938E-01  3.6176E+01
 --------------------------------------------------------------------------------



            CUMULATIVE HYDROLOGIC BUDGET SUMMARIES FOR SIMULATED LAKES
     (ALL FLUID FLUXES ARE SUMS OF VOLUMES ADDED TO THE LAKE SINCE INITIAL TIME)
     ---------------------------------------------------------------------------
 LAKE       PRECIP       EVAP       RUNOFF
   1     1.2502E+08  1.1101E+08  0.0000E+00

            GROUND WATER            SURFACE WATER
 LAKE    INFLOW     OUTFLOW      INFLOW     OUTFLOW
   1  2.1523E+08  3.0844E+06  0.0000E+00  0.0000E+00

         WATER    CONNECTED LAKE
 LAKE     USE         INFLUX
   1   0.0000E+00   0.0000E+00
 --------------------------------------------------------------------------------

 
 SOLVING FOR HEAD 
 ALL LAKES CONVERGED AFTER   3  ITERATIONS
 ALL LAKES CONVERGED AFTER   2  ITERATIONS
 ALL LAKES CONVERGED AFTER   2  ITERATIONS
 ALL LAKES CONVERGED AFTER   2  ITERATIONS
 ALL LAKES CONVERGED AFTER   2  ITERATIONS
 ALL LAKES CONVERGED AFTER   2  ITERATIONS
 ALL LAKES CONVERGED AFTER   3  ITERATIONS
 ALL LAKES CONVERGED AFTER   2  ITERATIONS
 ALL LAKES CONVERGED AFTER   2  ITERATIONS
 ALL LAKES CONVERGED AFTER   2  ITERATIONS
 ALL LAKES CONVERGED AFTER   2  ITERATIONS
 ALL LAKES CONVERGED AFTER   2  ITERATIONS
 ALL LAKES CONVERGED AFTER   2  ITERATIONS
 ALL LAKES CONVERGED AFTER   2  ITERATIONS
 ALL LAKES CONVERGED AFTER   2  ITERATIONS
 ALL LAKES CONVERGED AFTER   2  ITERATIONS
 ALL LAKES CONVERGED AFTER   2  ITERATIONS
 ALL LAKES CONVERGED AFTER   2  ITERATIONS
 ALL LAKES CONVERGED AFTER   2  ITERATIONS
 ALL LAKES CONVERGED AFTER   2  ITERATIONS
 ALL LAKES CONVERGED AFTER   2  ITERATIONS
 ALL LAKES CONVERGED AFTER   2  ITERATIONS
 ALL LAKES CONVERGED AFTER   2  ITERATIONS
 ALL LAKES CONVERGED AFTER   2  ITERATIONS
 ALL LAKES CONVERGED AFTER   2  ITERATIONS
 ALL LAKES CONVERGED AFTER   2  ITERATIONS
 ALL LAKES CONVERGED AFTER   2  ITERATIONS
 ALL LAKES CONVERGED AFTER   2  ITERATIONS
 ALL LAKES CONVERGED AFTER   2  ITERATIONS
 ALL LAKES CONVERGED AFTER   2  ITERATIONS
 ALL LAKES CONVERGED AFTER   1  ITERATIONS
 ALL LAKES CONVERGED AFTER   2  ITERATIONS
 ALL LAKES CONVERGED AFTER   2  ITERATIONS
 ALL LAKES CONVERGED AFTER   2  ITERATIONS
 ALL LAKES CONVERGED AFTER   1  ITERATIONS
 ALL LAKES CONVERGED AFTER   2  ITERATIONS
 ALL LAKES CONVERGED AFTER   1  ITERATIONS
    37 ITERATIONS FOR TIME STEP  59 IN STRESS PERIOD    1

 MAXIMUM HEAD CHANGE FOR EACH ITERATION:

    HEAD CHANGE   HEAD CHANGE   HEAD CHANGE   HEAD CHANGE   HEAD CHANGE
  LAYER,ROW,COL LAYER,ROW,COL LAYER,ROW,COL LAYER,ROW,COL LAYER,ROW,COL
 ----------------------------------------------------------------------
     0.3355E-01    0.3425E-01    0.3356E-01    0.2206E-01    0.2974E-01
  (  3,  9,  9) (  2, 10, 12) (  5, 10,  8) (  3,  8, 10) (  3, 10,  8)
     0.1553E-01    0.1360E-01    0.1077E-01    0.1473E-01    0.8001E-02
  (  2,  7,  7) (  5, 10,  8) (  3,  8, 10) (  3, 10,  8) (  3,  8, 10)
     0.9825E-02    0.5874E-02    0.6613E-02    0.4133E-02    0.5552E-02
  (  3,  8,  8) (  5,  9,  9) (  5, 10,  8) (  3,  8, 10) (  3, 10,  8)
     0.2885E-02    0.2528E-02    0.2004E-02    0.2739E-02    0.1495E-02
  (  2,  7,  7) (  5, 10,  8) (  3,  8, 10) (  3, 10,  8) (  2,  8, 11)
     0.1827E-02    0.1083E-02    0.1237E-02    0.7658E-03    0.1027E-02
  (  3,  8,  8) (  5,  9,  9) (  5, 10,  8) (  3,  8, 10) (  3, 10,  8)
     0.5414E-03    0.4609E-03    0.3679E-03    0.5036E-03    0.2771E-03
  (  2,  7,  7) (  5, 10,  9) (  3,  8, 10) (  3, 10,  8) (  2,  8, 11)
     0.3374E-03    0.2052E-03    0.2282E-03    0.1511E-03    0.1893E-03
  (  3,  8,  8) (  5,  9,  9) (  5, 10,  8) (  3,  8, 10) (  3, 10,  8)
     0.1018E-03    0.9538E-04
  (  3,  8,  9) (  5,  9,  7)


 HEAD/DRAWDOWN PRINTOUT FLAG = 0     TOTAL BUDGET PRINTOUT FLAG = 0
 CELL-BY-CELL FLOW TERM FLAG = 1

 OUTPUT FLAGS FOR ALL LAYERS ARE THE SAME:
   HEAD    DRAWDOWN  HEAD  DRAWDOWN
 PRINTOUT  PRINTOUT  SAVE    SAVE
 ----------------------------------
     0         0       0       0


     0  LAKE CELLS ARE DRY.

 PERIOD     1     TIME STEP    59     TIME STEP LENGTH  5.0501E+01
 PERIOD TIME  1.7749E+03     TOTAL SIMULATION TIME  1.7749E+03


                 HYDROLOGIC BUDGET SUMMARIES FOR SIMULATED LAKES
     (ALL FLUID FLUXES ARE VOLUMES ADDED TO THE LAKE DURING PRESENT TIME STEP)
     -------------------------------------------------------------------------
 LAKE   STAGE     PRECIP       EVAP       RUNOFF
   1   146.38  3.6613E+06  3.2510E+06  0.0000E+00

            GROUND WATER            SURFACE WATER
 LAKE    INFLOW     OUTFLOW      INFLOW     OUTFLOW
   1  1.5033E+06  6.4600E+05  0.0000E+00  0.0000E+00

         WATER    CONNECTED LAKE   UPDATED     TIME-STEP          STAGE CHANGE
 LAKE     USE         INFLUX        VOLUME    SURFACE AREA   TIME STEP  CUMULATIVE
   1   0.0000E+00   0.0000E+00   2.6862E+08    6.2500E+06   2.0241E-01  3.6378E+01
 --------------------------------------------------------------------------------



            CUMULATIVE HYDROLOGIC BUDGET SUMMARIES FOR SIMULATED LAKES
     (ALL FLUID FLUXES ARE SUMS OF VOLUMES ADDED TO THE LAKE SINCE INITIAL TIME)
     ---------------------------------------------------------------------------
 LAKE       PRECIP       EVAP       RUNOFF
   1     1.2868E+08  1.1426E+08  0.0000E+00

            GROUND WATER            SURFACE WATER
 LAKE    INFLOW     OUTFLOW      INFLOW     OUTFLOW
   1  2.1673E+08  3.7304E+06  0.0000E+00  0.0000E+00

         WATER    CONNECTED LAKE
 LAKE     USE         INFLUX
   1   0.0000E+00   0.0000E+00
 --------------------------------------------------------------------------------

 
 SOLVING FOR HEAD 
 ALL LAKES CONVERGED AFTER   2  ITERATIONS
 ALL LAKES CONVERGED AFTER   3  ITERATIONS
 ALL LAKES CONVERGED AFTER   3  ITERATIONS
 ALL LAKES CONVERGED AFTER   3  ITERATIONS
 ALL LAKES CONVERGED AFTER   2  ITERATIONS
 ALL LAKES CONVERGED AFTER   2  ITERATIONS
 ALL LAKES CONVERGED AFTER   3  ITERATIONS
 ALL LAKES CONVERGED AFTER   3  ITERATIONS
 ALL LAKES CONVERGED AFTER   2  ITERATIONS
 ALL LAKES CONVERGED AFTER   2  ITERATIONS
 ALL LAKES CONVERGED AFTER   2  ITERATIONS
 ALL LAKES CONVERGED AFTER   2  ITERATIONS
 ALL LAKES CONVERGED AFTER   2  ITERATIONS
 ALL LAKES CONVERGED AFTER   2  ITERATIONS
 ALL LAKES CONVERGED AFTER   2  ITERATIONS
 ALL LAKES CONVERGED AFTER   2  ITERATIONS
 ALL LAKES CONVERGED AFTER   2  ITERATIONS
 ALL LAKES CONVERGED AFTER   2  ITERATIONS
 ALL LAKES CONVERGED AFTER   2  ITERATIONS
 ALL LAKES CONVERGED AFTER   2  ITERATIONS
 ALL LAKES CONVERGED AFTER   2  ITERATIONS
 ALL LAKES CONVERGED AFTER   2  ITERATIONS
 ALL LAKES CONVERGED AFTER   2  ITERATIONS
 ALL LAKES CONVERGED AFTER   2  ITERATIONS
 ALL LAKES CONVERGED AFTER   2  ITERATIONS
 ALL LAKES CONVERGED AFTER   2  ITERATIONS
 ALL LAKES CONVERGED AFTER   2  ITERATIONS
 ALL LAKES CONVERGED AFTER   2  ITERATIONS
 ALL LAKES CONVERGED AFTER   2  ITERATIONS
 ALL LAKES CONVERGED AFTER   2  ITERATIONS
 ALL LAKES CONVERGED AFTER   1  ITERATIONS
 ALL LAKES CONVERGED AFTER   2  ITERATIONS
 ALL LAKES CONVERGED AFTER   2  ITERATIONS
 ALL LAKES CONVERGED AFTER   2  ITERATIONS
 ALL LAKES CONVERGED AFTER   1  ITERATIONS
 ALL LAKES CONVERGED AFTER   2  ITERATIONS
 ALL LAKES CONVERGED AFTER   1  ITERATIONS
    37 ITERATIONS FOR TIME STEP  60 IN STRESS PERIOD    1

 MAXIMUM HEAD CHANGE FOR EACH ITERATION:

    HEAD CHANGE   HEAD CHANGE   HEAD CHANGE   HEAD CHANGE   HEAD CHANGE
  LAYER,ROW,COL LAYER,ROW,COL LAYER,ROW,COL LAYER,ROW,COL LAYER,ROW,COL
 ----------------------------------------------------------------------
     0.3044E-01    0.3133E-01    0.3060E-01    0.2020E-01    0.2727E-01
  (  3,  9,  9) (  2, 10, 12) (  5, 10,  8) (  3,  8, 10) (  3, 10,  8)
     0.1429E-01    0.1256E-01    0.9967E-02    0.1365E-01    0.7438E-02
  (  2,  7,  7) (  5, 10,  8) (  3,  8, 10) (  3, 10,  8) (  3,  8, 10)
     0.9151E-02    0.5493E-02    0.6199E-02    0.3891E-02    0.5223E-02
  (  3,  8,  8) (  5,  9,  9) (  5, 10,  8) (  3,  8, 10) (  3, 10,  8)
     0.2724E-02    0.2392E-02    0.1901E-02    0.2596E-02    0.1417E-02
  (  2,  7,  7) (  5, 10,  8) (  3,  8, 10) (  3, 10,  8) (  2,  7,  9)
     0.1751E-02    0.1040E-02    0.1179E-02    0.7458E-03    0.1006E-02
  (  3,  8,  8) (  5,  9,  9) (  5, 10,  8) (  3,  8, 10) (  3, 10,  8)
     0.5144E-03    0.4533E-03    0.3579E-03    0.4852E-03    0.2709E-03
  (  2,  7,  7) (  5, 10,  8) (  3,  8, 10) (  3, 10,  8) (  3,  8, 10)
     0.3370E-03    0.1956E-03    0.2238E-03    0.1381E-03    0.1957E-03
  (  3,  8,  8) (  5,  9,  9) (  5, 10,  8) (  2,  8, 11) (  2, 11,  8)
     0.1033E-03    0.8626E-04
  (  2,  7,  7) (  5,  9,  7)


 HEAD/DRAWDOWN PRINTOUT FLAG = 1     TOTAL BUDGET PRINTOUT FLAG = 1
 CELL-BY-CELL FLOW TERM FLAG = 1

 OUTPUT FLAGS FOR EACH LAYER:
          HEAD    DRAWDOWN  HEAD  DRAWDOWN
 LAYER  PRINTOUT  PRINTOUT  SAVE    SAVE
 -----------------------------------------
    1       0         0       0       0
    2       0         0       0       0
    3       0         0       0       0
    4       0         0       0       0
    5       1         0       0       0


     0  LAKE CELLS ARE DRY.

 PERIOD     1     TIME STEP    60     TIME STEP LENGTH  5.1511E+01
 PERIOD TIME  1.8264E+03     TOTAL SIMULATION TIME  1.8264E+03


                 HYDROLOGIC BUDGET SUMMARIES FOR SIMULATED LAKES
     (ALL FLUID FLUXES ARE VOLUMES ADDED TO THE LAKE DURING PRESENT TIME STEP)
     -------------------------------------------------------------------------
 LAKE   STAGE     PRECIP       EVAP       RUNOFF
   1   146.56  3.7346E+06  3.3160E+06  0.0000E+00

            GROUND WATER            SURFACE WATER
 LAKE    INFLOW     OUTFLOW      INFLOW     OUTFLOW
   1  1.4644E+06  7.1553E+05  0.0000E+00  0.0000E+00

         WATER    CONNECTED LAKE   UPDATED     TIME-STEP          STAGE CHANGE
 LAKE     USE         INFLUX        VOLUME    SURFACE AREA   TIME STEP  CUMULATIVE
   1   0.0000E+00   0.0000E+00   2.6978E+08    6.2500E+06   1.8640E-01  3.6565E+01
 --------------------------------------------------------------------------------



            CUMULATIVE HYDROLOGIC BUDGET SUMMARIES FOR SIMULATED LAKES
     (ALL FLUID FLUXES ARE SUMS OF VOLUMES ADDED TO THE LAKE SINCE INITIAL TIME)
     ---------------------------------------------------------------------------
 LAKE       PRECIP       EVAP       RUNOFF
   1     1.3241E+08  1.1757E+08  0.0000E+00

            GROUND WATER            SURFACE WATER
 LAKE    INFLOW     OUTFLOW      INFLOW     OUTFLOW
   1  2.1820E+08  4.4460E+06  0.0000E+00  0.0000E+00

         WATER    CONNECTED LAKE
 LAKE     USE         INFLUX
   1   0.0000E+00   0.0000E+00
 --------------------------------------------------------------------------------

1
              HEAD IN LAYER   5 AT END OF TIME STEP  60 IN STRESS PERIOD    1
  ---------------------------------------------------------------------------

          1      2      3      4      5      6      7      8      9     10
 .........................................................................
   1   160.0  158.9  157.3  155.8  154.2  152.7  151.5  150.8  150.0  149.2
   2   160.0  158.6  156.7  155.0  153.4  151.8  150.7  149.9  149.1  148.3
   3   160.0  158.3  156.2  154.4  152.7  151.0  149.8  149.1  148.3  147.5
   4   160.0  158.2  156.0  154.1  152.3  150.5  149.3  148.5  147.8  147.0
   5   160.0  158.2  155.9  153.8  151.9  150.1  148.9  148.1  147.4  146.7
   6   160.0  158.2  155.8  153.7  151.7  149.6  148.2  147.5  147.0  146.5
   7   160.0  158.1  155.7  153.6  151.5  149.2  146.7  146.6  146.6  146.6
   8   160.0  158.1  155.7  153.6  151.4  149.0  146.6  146.6  146.6  146.6
   9   160.0  158.1  155.7  153.5  151.4  149.0  146.6  146.6  146.6  146.6
  10   160.0  158.1  155.7  153.6  151.4  149.0  146.6  146.6  146.6  146.6
  11   160.0  158.1  155.7  153.6  151.5  149.2  146.7  146.6  146.6  146.6
  12   160.0  158.2  155.8  153.7  151.7  149.6  148.2  147.5  147.0  146.5
  13   160.0  158.2  155.9  153.8  151.9  150.1  148.9  148.1  147.4  146.7
  14   160.0  158.2  156.0  154.1  152.3  150.5  149.3  148.5  147.8  147.0
  15   160.0  158.3  156.2  154.4  152.7  151.0  149.8  149.1  148.3  147.5
  16   160.0  158.6  156.7  155.0  153.4  151.8  150.7  149.9  149.1  148.3
  17   160.0  158.9  157.3  155.8  154.2  152.7  151.5  150.8  150.0  149.2
1
              HEAD IN LAYER   5 AT END OF TIME STEP  60 IN STRESS PERIOD    1
  ---------------------------------------------------------------------------

         11     12     13     14     15     16     17
 ....................................................
   1   148.5  147.3  145.8  144.2  142.7  141.1  140.0
   2   147.5  146.4  144.9  143.4  141.9  140.6  140.0
   3   146.7  145.6  144.1  142.6  141.3  140.3  140.0
   4   146.3  145.1  143.7  142.3  141.0  140.1  140.0
   5   146.0  144.9  143.5  142.1  140.9  140.1  140.0
   6   145.9  144.8  143.4  142.0  140.9  140.1  140.0
   7   146.5  145.0  143.4  142.0  140.8  140.0  140.0
   8   146.5  145.0  143.4  142.0  140.8  140.0  140.0
   9   146.5  145.0  143.4  142.0  140.8  140.0  140.0
  10   146.5  145.0  143.4  142.0  140.8  140.0  140.0
  11   146.5  145.0  143.4  142.0  140.8  140.0  140.0
  12   145.9  144.8  143.4  142.0  140.9  140.1  140.0
  13   146.0  144.9  143.5  142.1  140.9  140.1  140.0
  14   146.3  145.1  143.7  142.3  141.0  140.1  140.0
  15   146.7  145.6  144.1  142.6  141.3  140.3  140.0
  16   147.5  146.4  144.9  143.4  141.9  140.6  140.0
  17   148.5  147.3  145.8  144.2  142.7  141.1  140.0
1
  VOLUMETRIC BUDGET FOR ENTIRE MODEL AT END OF TIME STEP 60 IN STRESS PERIOD   1
  ------------------------------------------------------------------------------

     CUMULATIVE VOLUMES      L**3       RATES FOR THIS TIME STEP      L**3/T
     ------------------                 ------------------------

           IN:                                      IN:
           ---                                      ---
             STORAGE =       31346.7051               STORAGE =           0.0000
       CONSTANT HEAD =   759114368.0000         CONSTANT HEAD =      170904.4688
                  ET =           0.0000                    ET =           0.0000
            RECHARGE =  3177918976.0000              RECHARGE =     1740000.0000
     SPECIFIED FLOWS =           0.0000       SPECIFIED FLOWS =           0.0000
       LAKE  SEEPAGE =     4445953.5000         LAKE  SEEPAGE =       13890.8252

            TOTAL IN =  3941510656.0000              TOTAL IN =     1924795.2500

          OUT:                                     OUT:
          ----                                     ----
             STORAGE =  1005009792.0000               STORAGE =       13888.9043
       CONSTANT HEAD =     8862278.0000         CONSTANT HEAD =        8253.4834
                  ET =  2709421568.0000                    ET =     1874220.3750
            RECHARGE =           0.0000              RECHARGE =           0.0000
     SPECIFIED FLOWS =           0.0000       SPECIFIED FLOWS =           0.0000
       LAKE  SEEPAGE =   218195360.0000         LAKE  SEEPAGE =       28428.1484

           TOTAL OUT =  3941488896.0000             TOTAL OUT =     1924790.8750

            IN - OUT =       21760.0000              IN - OUT =           4.3750

 PERCENT DISCREPANCY =           0.00     PERCENT DISCREPANCY =           0.00






          TIME SUMMARY AT END OF TIME STEP  60 IN STRESS PERIOD    1
                    SECONDS     MINUTES      HOURS       DAYS        YEARS
                    -----------------------------------------------------------
   TIME STEP LENGTH 4.45058E+06  74176.      1236.3      51.511     0.14103    
 STRESS PERIOD TIME 1.57800E+08 2.63000E+06  43833.      1826.4      5.0004    
         TOTAL TIME 1.57800E+08 2.63000E+06  43833.      1826.4      5.0004    
1
 
 SOLVING FOR HEAD 
 ALL LAKES CONVERGED AFTER   2  ITERATIONS
 ALL LAKES CONVERGED AFTER   2  ITERATIONS
 ALL LAKES CONVERGED AFTER   2  ITERATIONS
 ALL LAKES CONVERGED AFTER   2  ITERATIONS
 ALL LAKES CONVERGED AFTER   3  ITERATIONS
 ALL LAKES CONVERGED AFTER   2  ITERATIONS
 ALL LAKES CONVERGED AFTER   2  ITERATIONS
 ALL LAKES CONVERGED AFTER   2  ITERATIONS
 ALL LAKES CONVERGED AFTER   2  ITERATIONS
 ALL LAKES CONVERGED AFTER   2  ITERATIONS
 ALL LAKES CONVERGED AFTER   2  ITERATIONS
 ALL LAKES CONVERGED AFTER   2  ITERATIONS
 ALL LAKES CONVERGED AFTER   2  ITERATIONS
 ALL LAKES CONVERGED AFTER   2  ITERATIONS
 ALL LAKES CONVERGED AFTER   2  ITERATIONS
 ALL LAKES CONVERGED AFTER   2  ITERATIONS
 ALL LAKES CONVERGED AFTER   2  ITERATIONS
 ALL LAKES CONVERGED AFTER   2  ITERATIONS
 ALL LAKES CONVERGED AFTER   2  ITERATIONS
 ALL LAKES CONVERGED AFTER   2  ITERATIONS
 ALL LAKES CONVERGED AFTER   2  ITERATIONS
 ALL LAKES CONVERGED AFTER   2  ITERATIONS
 ALL LAKES CONVERGED AFTER   2  ITERATIONS
 ALL LAKES CONVERGED AFTER   2  ITERATIONS
 ALL LAKES CONVERGED AFTER   2  ITERATIONS
 ALL LAKES CONVERGED AFTER   2  ITERATIONS
 ALL LAKES CONVERGED AFTER   2  ITERATIONS
 ALL LAKES CONVERGED AFTER   2  ITERATIONS
 ALL LAKES CONVERGED AFTER   2  ITERATIONS
 ALL LAKES CONVERGED AFTER   2  ITERATIONS
 ALL LAKES CONVERGED AFTER   1  ITERATIONS
 ALL LAKES CONVERGED AFTER   2  ITERATIONS
 ALL LAKES CONVERGED AFTER   2  ITERATIONS
 ALL LAKES CONVERGED AFTER   2  ITERATIONS
 ALL LAKES CONVERGED AFTER   1  ITERATIONS
 ALL LAKES CONVERGED AFTER   2  ITERATIONS
    36 ITERATIONS FOR TIME STEP  61 IN STRESS PERIOD    1

 MAXIMUM HEAD CHANGE FOR EACH ITERATION:

    HEAD CHANGE   HEAD CHANGE   HEAD CHANGE   HEAD CHANGE   HEAD CHANGE
  LAYER,ROW,COL LAYER,ROW,COL LAYER,ROW,COL LAYER,ROW,COL LAYER,ROW,COL
 ----------------------------------------------------------------------
     0.2757E-01    0.2860E-01    0.2786E-01    0.1845E-01    0.2494E-01
  (  3,  9,  9) (  2, 10, 12) (  5, 10,  8) (  3,  8, 10) (  3, 10,  8)
     0.1312E-01    0.1155E-01    0.9219E-02    0.1263E-01    0.6906E-02
  (  2,  7,  7) (  5, 10,  8) (  3,  8, 10) (  3, 10,  8) (  3,  8, 10)
     0.8495E-02    0.5122E-02    0.5799E-02    0.3629E-02    0.4895E-02
  (  3,  8,  8) (  5,  9,  9) (  5, 10,  8) (  3,  8, 10) (  3, 10,  8)
     0.2571E-02    0.2256E-02    0.1799E-02    0.2453E-02    0.1365E-02
  (  2,  7,  7) (  5, 10,  8) (  3,  8, 10) (  3, 10,  8) (  3,  8, 10)
     0.1667E-02    0.1005E-02    0.1134E-02    0.7156E-03    0.9568E-03
  (  3,  8,  8) (  5,  9,  9) (  5, 10,  8) (  3,  8, 10) (  3, 10,  8)
     0.4960E-03    0.4419E-03    0.3475E-03    0.4861E-03    0.2709E-03
  (  2,  7,  7) (  5, 10,  8) (  3,  8, 10) (  3, 10,  8) (  3,  8, 10)
     0.3186E-03    0.1939E-03    0.2230E-03    0.1374E-03    0.1801E-03
  (  3,  8,  8) (  5,  9,  9) (  5, 10,  8) (  2,  7, 11) (  5, 10,  8)
     0.9879E-04
  (  2,  7, 11)


 HEAD/DRAWDOWN PRINTOUT FLAG = 0     TOTAL BUDGET PRINTOUT FLAG = 0
 CELL-BY-CELL FLOW TERM FLAG = 1

 OUTPUT FLAGS FOR ALL LAYERS ARE THE SAME:
   HEAD    DRAWDOWN  HEAD  DRAWDOWN
 PRINTOUT  PRINTOUT  SAVE    SAVE
 ----------------------------------
     0         0       0       0


     0  LAKE CELLS ARE DRY.

 PERIOD     1     TIME STEP    61     TIME STEP LENGTH  5.2542E+01
 PERIOD TIME  1.8789E+03     TOTAL SIMULATION TIME  1.8789E+03


                 HYDROLOGIC BUDGET SUMMARIES FOR SIMULATED LAKES
     (ALL FLUID FLUXES ARE VOLUMES ADDED TO THE LAKE DURING PRESENT TIME STEP)
     -------------------------------------------------------------------------
 LAKE   STAGE     PRECIP       EVAP       RUNOFF
   1   146.74  3.8093E+06  3.3824E+06  0.0000E+00

            GROUND WATER            SURFACE WATER
 LAKE    INFLOW     OUTFLOW      INFLOW     OUTFLOW
   1  1.4288E+06  7.8305E+05  0.0000E+00  0.0000E+00

         WATER    CONNECTED LAKE   UPDATED     TIME-STEP          STAGE CHANGE
 LAKE     USE         INFLUX        VOLUME    SURFACE AREA   TIME STEP  CUMULATIVE
   1   0.0000E+00   0.0000E+00   2.7085E+08    6.2500E+06   1.7120E-01  3.6736E+01
 --------------------------------------------------------------------------------



            CUMULATIVE HYDROLOGIC BUDGET SUMMARIES FOR SIMULATED LAKES
     (ALL FLUID FLUXES ARE SUMS OF VOLUMES ADDED TO THE LAKE SINCE INITIAL TIME)
     ---------------------------------------------------------------------------
 LAKE       PRECIP       EVAP       RUNOFF
   1     1.3622E+08  1.2096E+08  0.0000E+00

            GROUND WATER            SURFACE WATER
 LAKE    INFLOW     OUTFLOW      INFLOW     OUTFLOW
   1  2.1962E+08  5.2290E+06  0.0000E+00  0.0000E+00

         WATER    CONNECTED LAKE
 LAKE     USE         INFLUX
   1   0.0000E+00   0.0000E+00
 --------------------------------------------------------------------------------

 
 SOLVING FOR HEAD 
 ALL LAKES CONVERGED AFTER   2  ITERATIONS
 ALL LAKES CONVERGED AFTER   2  ITERATIONS
 ALL LAKES CONVERGED AFTER   3  ITERATIONS
 ALL LAKES CONVERGED AFTER   2  ITERATIONS
 ALL LAKES CONVERGED AFTER   2  ITERATIONS
 ALL LAKES CONVERGED AFTER   2  ITERATIONS
 ALL LAKES CONVERGED AFTER   3  ITERATIONS
 ALL LAKES CONVERGED AFTER   3  ITERATIONS
 ALL LAKES CONVERGED AFTER   2  ITERATIONS
 ALL LAKES CONVERGED AFTER   2  ITERATIONS
 ALL LAKES CONVERGED AFTER   2  ITERATIONS
 ALL LAKES CONVERGED AFTER   2  ITERATIONS
 ALL LAKES CONVERGED AFTER   2  ITERATIONS
 ALL LAKES CONVERGED AFTER   2  ITERATIONS
 ALL LAKES CONVERGED AFTER   2  ITERATIONS
 ALL LAKES CONVERGED AFTER   2  ITERATIONS
 ALL LAKES CONVERGED AFTER   2  ITERATIONS
 ALL LAKES CONVERGED AFTER   2  ITERATIONS
 ALL LAKES CONVERGED AFTER   2  ITERATIONS
 ALL LAKES CONVERGED AFTER   2  ITERATIONS
 ALL LAKES CONVERGED AFTER   2  ITERATIONS
 ALL LAKES CONVERGED AFTER   2  ITERATIONS
 ALL LAKES CONVERGED AFTER   2  ITERATIONS
 ALL LAKES CONVERGED AFTER   2  ITERATIONS
 ALL LAKES CONVERGED AFTER   2  ITERATIONS
 ALL LAKES CONVERGED AFTER   2  ITERATIONS
 ALL LAKES CONVERGED AFTER   2  ITERATIONS
 ALL LAKES CONVERGED AFTER   2  ITERATIONS
 ALL LAKES CONVERGED AFTER   2  ITERATIONS
 ALL LAKES CONVERGED AFTER   2  ITERATIONS
 ALL LAKES CONVERGED AFTER   1  ITERATIONS
 ALL LAKES CONVERGED AFTER   2  ITERATIONS
 ALL LAKES CONVERGED AFTER   2  ITERATIONS
 ALL LAKES CONVERGED AFTER   2  ITERATIONS
 ALL LAKES CONVERGED AFTER   1  ITERATIONS
 ALL LAKES CONVERGED AFTER   2  ITERATIONS
 ALL LAKES CONVERGED AFTER   1  ITERATIONS
    37 ITERATIONS FOR TIME STEP  62 IN STRESS PERIOD    1

 MAXIMUM HEAD CHANGE FOR EACH ITERATION:

    HEAD CHANGE   HEAD CHANGE   HEAD CHANGE   HEAD CHANGE   HEAD CHANGE
  LAYER,ROW,COL LAYER,ROW,COL LAYER,ROW,COL LAYER,ROW,COL LAYER,ROW,COL
 ----------------------------------------------------------------------
     0.2492E-01    0.2604E-01    0.2530E-01    0.1683E-01    0.2277E-01
  (  3,  9,  9) (  2, 10, 12) (  5, 10,  8) (  3,  8, 10) (  3, 10,  8)
     0.1203E-01    0.1061E-01    0.8503E-02    0.1165E-01    0.6404E-02
  (  2,  7,  7) (  5, 10,  8) (  3,  8, 10) (  3, 10,  8) (  3,  8, 10)
     0.7868E-02    0.4773E-02    0.5398E-02    0.3407E-02    0.4595E-02
  (  3,  8,  8) (  5,  9,  9) (  5, 10,  8) (  3,  8, 10) (  3, 10,  8)
     0.2411E-02    0.2120E-02    0.1706E-02    0.2329E-02    0.1275E-02
  (  2,  7,  7) (  5, 10,  8) (  3,  8, 10) (  3, 10,  8) (  3,  8, 10)
     0.1574E-02    0.9603E-03    0.1084E-02    0.6854E-03    0.9167E-03
  (  3,  8,  8) (  5,  9,  9) (  5, 10,  8) (  3,  8, 10) (  3, 10,  8)
     0.4853E-03    0.4205E-03    0.3397E-03    0.4764E-03    0.2574E-03
  (  2,  7,  7) (  5, 10,  8) (  2,  9, 11) (  3, 10,  8) (  2,  8, 11)
     0.3090E-03    0.1936E-03    0.2140E-03    0.1410E-03    0.1791E-03
  (  3,  8,  8) (  5,  9,  9) (  5, 10,  8) (  3,  8, 10) (  3, 10,  8)
     0.1018E-03    0.8632E-04
  (  3,  9, 10) (  5,  8,  7)


 HEAD/DRAWDOWN PRINTOUT FLAG = 0     TOTAL BUDGET PRINTOUT FLAG = 0
 CELL-BY-CELL FLOW TERM FLAG = 1

 OUTPUT FLAGS FOR ALL LAYERS ARE THE SAME:
   HEAD    DRAWDOWN  HEAD  DRAWDOWN
 PRINTOUT  PRINTOUT  SAVE    SAVE
 ----------------------------------
     0         0       0       0


     0  LAKE CELLS ARE DRY.

 PERIOD     1     TIME STEP    62     TIME STEP LENGTH  5.3592E+01
 PERIOD TIME  1.9325E+03     TOTAL SIMULATION TIME  1.9325E+03


                 HYDROLOGIC BUDGET SUMMARIES FOR SIMULATED LAKES
     (ALL FLUID FLUXES ARE VOLUMES ADDED TO THE LAKE DURING PRESENT TIME STEP)
     -------------------------------------------------------------------------
 LAKE   STAGE     PRECIP       EVAP       RUNOFF
   1   146.89  3.8854E+06  3.4500E+06  0.0000E+00

            GROUND WATER            SURFACE WATER
 LAKE    INFLOW     OUTFLOW      INFLOW     OUTFLOW
   1  1.3968E+06  8.4841E+05  0.0000E+00  0.0000E+00

         WATER    CONNECTED LAKE   UPDATED     TIME-STEP          STAGE CHANGE
 LAKE     USE         INFLUX        VOLUME    SURFACE AREA   TIME STEP  CUMULATIVE
   1   0.0000E+00   0.0000E+00   2.7183E+08    6.2500E+06   1.5703E-01  3.6893E+01
 --------------------------------------------------------------------------------



            CUMULATIVE HYDROLOGIC BUDGET SUMMARIES FOR SIMULATED LAKES
     (ALL FLUID FLUXES ARE SUMS OF VOLUMES ADDED TO THE LAKE SINCE INITIAL TIME)
     ---------------------------------------------------------------------------
 LAKE       PRECIP       EVAP       RUNOFF
   1     1.4011E+08  1.2441E+08  0.0000E+00

            GROUND WATER            SURFACE WATER
 LAKE    INFLOW     OUTFLOW      INFLOW     OUTFLOW
   1  2.2102E+08  6.0774E+06  0.0000E+00  0.0000E+00

         WATER    CONNECTED LAKE
 LAKE     USE         INFLUX
   1   0.0000E+00   0.0000E+00
 --------------------------------------------------------------------------------

 
 SOLVING FOR HEAD 
 ALL LAKES CONVERGED AFTER   3  ITERATIONS
 ALL LAKES CONVERGED AFTER   2  ITERATIONS
 ALL LAKES CONVERGED AFTER   3  ITERATIONS
 ALL LAKES CONVERGED AFTER   3  ITERATIONS
 ALL LAKES CONVERGED AFTER   2  ITERATIONS
 ALL LAKES CONVERGED AFTER   3  ITERATIONS
 ALL LAKES CONVERGED AFTER   2  ITERATIONS
 ALL LAKES CONVERGED AFTER   2  ITERATIONS
 ALL LAKES CONVERGED AFTER   2  ITERATIONS
 ALL LAKES CONVERGED AFTER   2  ITERATIONS
 ALL LAKES CONVERGED AFTER   2  ITERATIONS
 ALL LAKES CONVERGED AFTER   2  ITERATIONS
 ALL LAKES CONVERGED AFTER   2  ITERATIONS
 ALL LAKES CONVERGED AFTER   2  ITERATIONS
 ALL LAKES CONVERGED AFTER   2  ITERATIONS
 ALL LAKES CONVERGED AFTER   2  ITERATIONS
 ALL LAKES CONVERGED AFTER   2  ITERATIONS
 ALL LAKES CONVERGED AFTER   2  ITERATIONS
 ALL LAKES CONVERGED AFTER   2  ITERATIONS
 ALL LAKES CONVERGED AFTER   2  ITERATIONS
 ALL LAKES CONVERGED AFTER   2  ITERATIONS
 ALL LAKES CONVERGED AFTER   2  ITERATIONS
 ALL LAKES CONVERGED AFTER   2  ITERATIONS
 ALL LAKES CONVERGED AFTER   2  ITERATIONS
 ALL LAKES CONVERGED AFTER   2  ITERATIONS
 ALL LAKES CONVERGED AFTER   2  ITERATIONS
 ALL LAKES CONVERGED AFTER   2  ITERATIONS
 ALL LAKES CONVERGED AFTER   2  ITERATIONS
 ALL LAKES CONVERGED AFTER   2  ITERATIONS
 ALL LAKES CONVERGED AFTER   2  ITERATIONS
 ALL LAKES CONVERGED AFTER   1  ITERATIONS
 ALL LAKES CONVERGED AFTER   2  ITERATIONS
 ALL LAKES CONVERGED AFTER   2  ITERATIONS
 ALL LAKES CONVERGED AFTER   2  ITERATIONS
 ALL LAKES CONVERGED AFTER   1  ITERATIONS
 ALL LAKES CONVERGED AFTER   2  ITERATIONS
 ALL LAKES CONVERGED AFTER   1  ITERATIONS
    37 ITERATIONS FOR TIME STEP  63 IN STRESS PERIOD    1

 MAXIMUM HEAD CHANGE FOR EACH ITERATION:

    HEAD CHANGE   HEAD CHANGE   HEAD CHANGE   HEAD CHANGE   HEAD CHANGE
  LAYER,ROW,COL LAYER,ROW,COL LAYER,ROW,COL LAYER,ROW,COL LAYER,ROW,COL
 ----------------------------------------------------------------------
     0.2248E-01    0.2366E-01    0.2294E-01    0.1532E-01    0.2075E-01
  (  3,  9,  9) (  2, 10, 12) (  5, 10,  8) (  3,  8, 10) (  3, 10,  8)
     0.1100E-01    0.9731E-02    0.7807E-02    0.1072E-01    0.5923E-02
  (  2,  7,  7) (  5, 10,  8) (  3,  8, 10) (  3, 10,  8) (  3,  8, 10)
     0.7278E-02    0.4416E-02    0.5004E-02    0.3175E-02    0.4277E-02
  (  3,  8,  8) (  5,  9,  9) (  5, 10,  8) (  3,  8, 10) (  3, 10,  8)
     0.2276E-02    0.2004E-02    0.1595E-02    0.2199E-02    0.1225E-02
  (  2,  7,  7) (  5, 10,  8) (  3,  8, 10) (  3, 10,  8) (  3,  8, 10)
     0.1508E-02    0.9080E-03    0.1041E-02    0.6509E-03    0.8775E-03
  (  3,  8,  8) (  5,  9,  9) (  5, 10,  8) (  2,  8, 11) (  3, 10,  8)
     0.4586E-03    0.4074E-03    0.3270E-03    0.4469E-03    0.2574E-03
  (  2,  7,  7) (  5, 10,  8) (  3,  8, 10) (  3, 10,  8) (  2,  8, 11)
     0.3090E-03    0.1752E-03    0.2153E-03    0.1475E-03    0.1800E-03
  (  3,  8,  8) (  4, 10, 11) (  5, 10,  8) (  2,  9, 11) (  5, 10,  8)
     0.1037E-03    0.8976E-04
  (  2,  7,  7) (  5, 10,  8)


 HEAD/DRAWDOWN PRINTOUT FLAG = 0     TOTAL BUDGET PRINTOUT FLAG = 0
 CELL-BY-CELL FLOW TERM FLAG = 1

 OUTPUT FLAGS FOR ALL LAYERS ARE THE SAME:
   HEAD    DRAWDOWN  HEAD  DRAWDOWN
 PRINTOUT  PRINTOUT  SAVE    SAVE
 ----------------------------------
     0         0       0       0


     0  LAKE CELLS ARE DRY.

 PERIOD     1     TIME STEP    63     TIME STEP LENGTH  5.4664E+01
 PERIOD TIME  1.9872E+03     TOTAL SIMULATION TIME  1.9872E+03


                 HYDROLOGIC BUDGET SUMMARIES FOR SIMULATED LAKES
     (ALL FLUID FLUXES ARE VOLUMES ADDED TO THE LAKE DURING PRESENT TIME STEP)
     -------------------------------------------------------------------------
 LAKE   STAGE     PRECIP       EVAP       RUNOFF
   1   147.04  3.9632E+06  3.5190E+06  0.0000E+00

            GROUND WATER            SURFACE WATER
 LAKE    INFLOW     OUTFLOW      INFLOW     OUTFLOW
   1  1.3685E+06  9.1167E+05  0.0000E+00  0.0000E+00

         WATER    CONNECTED LAKE   UPDATED     TIME-STEP          STAGE CHANGE
 LAKE     USE         INFLUX        VOLUME    SURFACE AREA   TIME STEP  CUMULATIVE
   1   0.0000E+00   0.0000E+00   2.7273E+08    6.2500E+06   1.4373E-01  3.7037E+01
 --------------------------------------------------------------------------------



            CUMULATIVE HYDROLOGIC BUDGET SUMMARIES FOR SIMULATED LAKES
     (ALL FLUID FLUXES ARE SUMS OF VOLUMES ADDED TO THE LAKE SINCE INITIAL TIME)
     ---------------------------------------------------------------------------
 LAKE       PRECIP       EVAP       RUNOFF
   1     1.4407E+08  1.2793E+08  0.0000E+00

            GROUND WATER            SURFACE WATER
 LAKE    INFLOW     OUTFLOW      INFLOW     OUTFLOW
   1  2.2239E+08  6.9891E+06  0.0000E+00  0.0000E+00

         WATER    CONNECTED LAKE
 LAKE     USE         INFLUX
   1   0.0000E+00   0.0000E+00
 --------------------------------------------------------------------------------

 
 SOLVING FOR HEAD 
 ALL LAKES CONVERGED AFTER   3  ITERATIONS
 ALL LAKES CONVERGED AFTER   3  ITERATIONS
 ALL LAKES CONVERGED AFTER   2  ITERATIONS
 ALL LAKES CONVERGED AFTER   3  ITERATIONS
 ALL LAKES CONVERGED AFTER   2  ITERATIONS
 ALL LAKES CONVERGED AFTER   2  ITERATIONS
 ALL LAKES CONVERGED AFTER   2  ITERATIONS
 ALL LAKES CONVERGED AFTER   2  ITERATIONS
 ALL LAKES CONVERGED AFTER   2  ITERATIONS
 ALL LAKES CONVERGED AFTER   2  ITERATIONS
 ALL LAKES CONVERGED AFTER   2  ITERATIONS
 ALL LAKES CONVERGED AFTER   2  ITERATIONS
 ALL LAKES CONVERGED AFTER   2  ITERATIONS
 ALL LAKES CONVERGED AFTER   2  ITERATIONS
 ALL LAKES CONVERGED AFTER   2  ITERATIONS
 ALL LAKES CONVERGED AFTER   2  ITERATIONS
 ALL LAKES CONVERGED AFTER   2  ITERATIONS
 ALL LAKES CONVERGED AFTER   2  ITERATIONS
 ALL LAKES CONVERGED AFTER   2  ITERATIONS
 ALL LAKES CONVERGED AFTER   2  ITERATIONS
 ALL LAKES CONVERGED AFTER   2  ITERATIONS
 ALL LAKES CONVERGED AFTER   2  ITERATIONS
 ALL LAKES CONVERGED AFTER   2  ITERATIONS
 ALL LAKES CONVERGED AFTER   2  ITERATIONS
 ALL LAKES CONVERGED AFTER   2  ITERATIONS
 ALL LAKES CONVERGED AFTER   2  ITERATIONS
 ALL LAKES CONVERGED AFTER   2  ITERATIONS
 ALL LAKES CONVERGED AFTER   2  ITERATIONS
 ALL LAKES CONVERGED AFTER   2  ITERATIONS
 ALL LAKES CONVERGED AFTER   2  ITERATIONS
 ALL LAKES CONVERGED AFTER   1  ITERATIONS
 ALL LAKES CONVERGED AFTER   2  ITERATIONS
 ALL LAKES CONVERGED AFTER   2  ITERATIONS
 ALL LAKES CONVERGED AFTER   2  ITERATIONS
 ALL LAKES CONVERGED AFTER   1  ITERATIONS
 ALL LAKES CONVERGED AFTER   2  ITERATIONS
    36 ITERATIONS FOR TIME STEP  64 IN STRESS PERIOD    1

 MAXIMUM HEAD CHANGE FOR EACH ITERATION:

    HEAD CHANGE   HEAD CHANGE   HEAD CHANGE   HEAD CHANGE   HEAD CHANGE
  LAYER,ROW,COL LAYER,ROW,COL LAYER,ROW,COL LAYER,ROW,COL LAYER,ROW,COL
 ----------------------------------------------------------------------
     0.2023E-01    0.2145E-01    0.2073E-01    0.1389E-01    0.1883E-01
  (  3,  9,  9) (  2, 10, 12) (  5, 10,  8) (  3,  8, 10) (  3, 10,  8)
     0.1003E-01    0.8900E-02    0.7163E-02    0.9835E-02    0.5461E-02
  (  2,  7,  7) (  5, 10,  8) (  3,  8, 10) (  3, 10,  8) (  3,  8, 10)
     0.6725E-02    0.4082E-02    0.4640E-02    0.2954E-02    0.3978E-02
  (  3,  8,  8) (  5,  9,  9) (  5, 10,  8) (  3,  8, 10) (  3, 10,  8)
     0.2115E-02    0.1869E-02    0.1502E-02    0.2064E-02    0.1149E-02
  (  2,  7,  7) (  5, 10,  8) (  3,  8, 10) (  3, 10,  8) (  2,  8, 11)
     0.1405E-02    0.8626E-03    0.9718E-03    0.6147E-03    0.8370E-03
  (  3,  8,  8) (  5,  9,  9) (  5, 10,  8) (  3,  8, 10) (  3, 10,  8)
     0.4396E-03    0.3904E-03    0.3263E-03    0.4466E-03    0.2461E-03
  (  2,  7,  7) (  5, 10, 10) (  3,  8, 10) (  3, 10,  8) (  2,  7, 10)
     0.2970E-03    0.1826E-03    0.2091E-03    0.1408E-03    0.1791E-03
  (  2,  7,  7) (  5,  9,  9) (  5, 10,  8) (  3,  8, 10) (  3, 10,  8)
     0.8655E-04
  (  2,  7,  7)


 HEAD/DRAWDOWN PRINTOUT FLAG = 0     TOTAL BUDGET PRINTOUT FLAG = 0
 CELL-BY-CELL FLOW TERM FLAG = 1

 OUTPUT FLAGS FOR ALL LAYERS ARE THE SAME:
   HEAD    DRAWDOWN  HEAD  DRAWDOWN
 PRINTOUT  PRINTOUT  SAVE    SAVE
 ----------------------------------
     0         0       0       0


     0  LAKE CELLS ARE DRY.

 PERIOD     1     TIME STEP    64     TIME STEP LENGTH  5.5757E+01
 PERIOD TIME  2.0429E+03     TOTAL SIMULATION TIME  2.0429E+03


                 HYDROLOGIC BUDGET SUMMARIES FOR SIMULATED LAKES
     (ALL FLUID FLUXES ARE VOLUMES ADDED TO THE LAKE DURING PRESENT TIME STEP)
     -------------------------------------------------------------------------
 LAKE   STAGE     PRECIP       EVAP       RUNOFF
   1   147.17  4.0424E+06  3.5894E+06  0.0000E+00

            GROUND WATER            SURFACE WATER
 LAKE    INFLOW     OUTFLOW      INFLOW     OUTFLOW
   1  1.3428E+06  9.7332E+05  0.0000E+00  0.0000E+00

         WATER    CONNECTED LAKE   UPDATED     TIME-STEP          STAGE CHANGE
 LAKE     USE         INFLUX        VOLUME    SURFACE AREA   TIME STEP  CUMULATIVE
   1   0.0000E+00   0.0000E+00   2.7355E+08    6.2500E+06   1.3118E-01  3.7168E+01
 --------------------------------------------------------------------------------



            CUMULATIVE HYDROLOGIC BUDGET SUMMARIES FOR SIMULATED LAKES
     (ALL FLUID FLUXES ARE SUMS OF VOLUMES ADDED TO THE LAKE SINCE INITIAL TIME)
     ---------------------------------------------------------------------------
 LAKE       PRECIP       EVAP       RUNOFF
   1     1.4811E+08  1.3151E+08  0.0000E+00

            GROUND WATER            SURFACE WATER
 LAKE    INFLOW     OUTFLOW      INFLOW     OUTFLOW
   1  2.2373E+08  7.9624E+06  0.0000E+00  0.0000E+00

         WATER    CONNECTED LAKE
 LAKE     USE         INFLUX
   1   0.0000E+00   0.0000E+00
 --------------------------------------------------------------------------------

 
 SOLVING FOR HEAD 
 ALL LAKES CONVERGED AFTER   2  ITERATIONS
 ALL LAKES CONVERGED AFTER   2  ITERATIONS
 ALL LAKES CONVERGED AFTER   3  ITERATIONS
 ALL LAKES CONVERGED AFTER   3  ITERATIONS
 ALL LAKES CONVERGED AFTER   2  ITERATIONS
 ALL LAKES CONVERGED AFTER   3  ITERATIONS
 ALL LAKES CONVERGED AFTER   2  ITERATIONS
 ALL LAKES CONVERGED AFTER   2  ITERATIONS
 ALL LAKES CONVERGED AFTER   2  ITERATIONS
 ALL LAKES CONVERGED AFTER   2  ITERATIONS
 ALL LAKES CONVERGED AFTER   2  ITERATIONS
 ALL LAKES CONVERGED AFTER   2  ITERATIONS
 ALL LAKES CONVERGED AFTER   2  ITERATIONS
 ALL LAKES CONVERGED AFTER   2  ITERATIONS
 ALL LAKES CONVERGED AFTER   2  ITERATIONS
 ALL LAKES CONVERGED AFTER   2  ITERATIONS
 ALL LAKES CONVERGED AFTER   2  ITERATIONS
 ALL LAKES CONVERGED AFTER   2  ITERATIONS
 ALL LAKES CONVERGED AFTER   2  ITERATIONS
 ALL LAKES CONVERGED AFTER   2  ITERATIONS
 ALL LAKES CONVERGED AFTER   2  ITERATIONS
 ALL LAKES CONVERGED AFTER   2  ITERATIONS
 ALL LAKES CONVERGED AFTER   2  ITERATIONS
 ALL LAKES CONVERGED AFTER   2  ITERATIONS
 ALL LAKES CONVERGED AFTER   2  ITERATIONS
 ALL LAKES CONVERGED AFTER   2  ITERATIONS
 ALL LAKES CONVERGED AFTER   2  ITERATIONS
 ALL LAKES CONVERGED AFTER   2  ITERATIONS
 ALL LAKES CONVERGED AFTER   2  ITERATIONS
 ALL LAKES CONVERGED AFTER   2  ITERATIONS
 ALL LAKES CONVERGED AFTER   1  ITERATIONS
 ALL LAKES CONVERGED AFTER   2  ITERATIONS
 ALL LAKES CONVERGED AFTER   2  ITERATIONS
 ALL LAKES CONVERGED AFTER   2  ITERATIONS
 ALL LAKES CONVERGED AFTER   1  ITERATIONS
 ALL LAKES CONVERGED AFTER   1  ITERATIONS
 ALL LAKES CONVERGED AFTER   1  ITERATIONS
    37 ITERATIONS FOR TIME STEP  65 IN STRESS PERIOD    1

 MAXIMUM HEAD CHANGE FOR EACH ITERATION:

    HEAD CHANGE   HEAD CHANGE   HEAD CHANGE   HEAD CHANGE   HEAD CHANGE
  LAYER,ROW,COL LAYER,ROW,COL LAYER,ROW,COL LAYER,ROW,COL LAYER,ROW,COL
 ----------------------------------------------------------------------
     0.1818E-01    0.1940E-01    0.1872E-01    0.1260E-01    0.1710E-01
  (  3,  9,  9) (  2, 10, 12) (  5, 10,  8) (  3,  8, 10) (  3, 10,  8)
     0.9126E-02    0.8116E-02    0.6559E-02    0.9016E-02    0.5009E-02
  (  2,  7,  7) (  5, 10,  8) (  3,  8, 10) (  3, 10,  8) (  3,  8, 10)
     0.6172E-02    0.3776E-02    0.4298E-02    0.2742E-02    0.3709E-02
  (  3,  8,  8) (  5,  9,  9) (  5, 10,  8) (  3,  8, 10) (  3, 10,  8)
     0.1973E-02    0.1744E-02    0.1410E-02    0.1940E-02    0.1084E-02
  (  2,  7,  7) (  5, 10,  8) (  3,  8, 10) (  3, 10,  8) (  3,  8, 10)
     0.1339E-02    0.8103E-03    0.9191E-03    0.5848E-03    0.7883E-03
  (  3,  8,  8) (  5,  9,  9) (  5, 10,  8) (  3,  8, 10) (  3, 10,  8)
     0.4288E-03    0.3832E-03    0.3064E-03    0.4084E-03    0.2357E-03
  (  2,  7,  7) (  5, 10,  8) (  3,  8, 10) (  3, 10,  8) (  2,  7,  9)
     0.2813E-03    0.1821E-03    0.1982E-03    0.1380E-03    0.1794E-03
  (  3,  8,  8) (  5,  9,  9) (  5, 10,  8) (  2,  8, 11) (  3, 10,  8)
     0.1040E-03    0.8965E-04
  (  2,  7,  7) (  5, 10,  8)


 HEAD/DRAWDOWN PRINTOUT FLAG = 0     TOTAL BUDGET PRINTOUT FLAG = 0
 CELL-BY-CELL FLOW TERM FLAG = 1

 OUTPUT FLAGS FOR ALL LAYERS ARE THE SAME:
   HEAD    DRAWDOWN  HEAD  DRAWDOWN
 PRINTOUT  PRINTOUT  SAVE    SAVE
 ----------------------------------
     0         0       0       0


     0  LAKE CELLS ARE DRY.

 PERIOD     1     TIME STEP    65     TIME STEP LENGTH  5.6873E+01
 PERIOD TIME  2.0998E+03     TOTAL SIMULATION TIME  2.0998E+03


                 HYDROLOGIC BUDGET SUMMARIES FOR SIMULATED LAKES
     (ALL FLUID FLUXES ARE VOLUMES ADDED TO THE LAKE DURING PRESENT TIME STEP)
     -------------------------------------------------------------------------
 LAKE   STAGE     PRECIP       EVAP       RUNOFF
   1   147.29  4.1233E+06  3.6612E+06  0.0000E+00

            GROUND WATER            SURFACE WATER
 LAKE    INFLOW     OUTFLOW      INFLOW     OUTFLOW
   1  1.3209E+06  1.0330E+06  0.0000E+00  0.0000E+00

         WATER    CONNECTED LAKE   UPDATED     TIME-STEP          STAGE CHANGE
 LAKE     USE         INFLUX        VOLUME    SURFACE AREA   TIME STEP  CUMULATIVE
   1   0.0000E+00   0.0000E+00   2.7430E+08    6.2500E+06   1.1961E-01  3.7288E+01
 --------------------------------------------------------------------------------



            CUMULATIVE HYDROLOGIC BUDGET SUMMARIES FOR SIMULATED LAKES
     (ALL FLUID FLUXES ARE SUMS OF VOLUMES ADDED TO THE LAKE SINCE INITIAL TIME)
     ---------------------------------------------------------------------------
 LAKE       PRECIP       EVAP       RUNOFF
   1     1.5224E+08  1.3518E+08  0.0000E+00

            GROUND WATER            SURFACE WATER
 LAKE    INFLOW     OUTFLOW      INFLOW     OUTFLOW
   1  2.2505E+08  8.9954E+06  0.0000E+00  0.0000E+00

         WATER    CONNECTED LAKE
 LAKE     USE         INFLUX
   1   0.0000E+00   0.0000E+00
 --------------------------------------------------------------------------------

 
 SOLVING FOR HEAD 
 ALL LAKES CONVERGED AFTER   3  ITERATIONS
 ALL LAKES CONVERGED AFTER   2  ITERATIONS
 ALL LAKES CONVERGED AFTER   2  ITERATIONS
 ALL LAKES CONVERGED AFTER   2  ITERATIONS
 ALL LAKES CONVERGED AFTER   2  ITERATIONS
 ALL LAKES CONVERGED AFTER   2  ITERATIONS
 ALL LAKES CONVERGED AFTER   2  ITERATIONS
 ALL LAKES CONVERGED AFTER   2  ITERATIONS
 ALL LAKES CONVERGED AFTER   2  ITERATIONS
 ALL LAKES CONVERGED AFTER   2  ITERATIONS
 ALL LAKES CONVERGED AFTER   2  ITERATIONS
 ALL LAKES CONVERGED AFTER   2  ITERATIONS
 ALL LAKES CONVERGED AFTER   2  ITERATIONS
 ALL LAKES CONVERGED AFTER   2  ITERATIONS
 ALL LAKES CONVERGED AFTER   2  ITERATIONS
 ALL LAKES CONVERGED AFTER   2  ITERATIONS
 ALL LAKES CONVERGED AFTER   2  ITERATIONS
 ALL LAKES CONVERGED AFTER   2  ITERATIONS
 ALL LAKES CONVERGED AFTER   2  ITERATIONS
 ALL LAKES CONVERGED AFTER   2  ITERATIONS
 ALL LAKES CONVERGED AFTER   2  ITERATIONS
 ALL LAKES CONVERGED AFTER   2  ITERATIONS
 ALL LAKES CONVERGED AFTER   2  ITERATIONS
 ALL LAKES CONVERGED AFTER   2  ITERATIONS
 ALL LAKES CONVERGED AFTER   2  ITERATIONS
 ALL LAKES CONVERGED AFTER   2  ITERATIONS
 ALL LAKES CONVERGED AFTER   2  ITERATIONS
 ALL LAKES CONVERGED AFTER   2  ITERATIONS
 ALL LAKES CONVERGED AFTER   2  ITERATIONS
 ALL LAKES CONVERGED AFTER   2  ITERATIONS
 ALL LAKES CONVERGED AFTER   1  ITERATIONS
 ALL LAKES CONVERGED AFTER   2  ITERATIONS
 ALL LAKES CONVERGED AFTER   2  ITERATIONS
 ALL LAKES CONVERGED AFTER   2  ITERATIONS
 ALL LAKES CONVERGED AFTER   1  ITERATIONS
 ALL LAKES CONVERGED AFTER   1  ITERATIONS
    36 ITERATIONS FOR TIME STEP  66 IN STRESS PERIOD    1

 MAXIMUM HEAD CHANGE FOR EACH ITERATION:

    HEAD CHANGE   HEAD CHANGE   HEAD CHANGE   HEAD CHANGE   HEAD CHANGE
  LAYER,ROW,COL LAYER,ROW,COL LAYER,ROW,COL LAYER,ROW,COL LAYER,ROW,COL
 ----------------------------------------------------------------------
     0.1628E-01    0.1749E-01    0.1685E-01    0.1139E-01    0.1545E-01
  (  3,  9,  9) (  2, 10, 12) (  5, 10,  8) (  3,  8, 10) (  3, 10,  8)
     0.8283E-02    0.7388E-02    0.5977E-02    0.8237E-02    0.4588E-02
  (  2,  7,  7) (  5, 10,  8) (  3,  8, 10) (  3, 10,  8) (  3,  8, 10)
     0.5658E-02    0.3473E-02    0.3956E-02    0.2520E-02    0.3430E-02
  (  3,  8,  8) (  5,  9,  9) (  5, 10,  8) (  3,  8, 10) (  3, 10,  8)
     0.1830E-02    0.1629E-02    0.1318E-02    0.1807E-02    0.1014E-02
  (  2,  7,  7) (  5, 10,  8) (  3,  8, 10) (  3, 10,  8) (  3,  8, 10)
     0.1255E-02    0.7567E-03    0.8672E-03    0.5642E-03    0.7672E-03
  (  3,  8,  8) (  5,  9,  9) (  5, 10,  8) (  3,  8, 10) (  3, 10,  8)
     0.4009E-03    0.3612E-03    0.2898E-03    0.3998E-03    0.2278E-03
  (  2,  7,  7) (  5, 10,  8) (  2,  9, 11) (  3, 10,  8) (  2,  8, 11)
     0.2808E-03    0.1631E-03    0.1908E-03    0.1209E-03    0.1601E-03
  (  3,  8,  8) (  5,  9,  9) (  5, 10,  8) (  3,  8, 10) (  2, 11,  7)
     0.8674E-04
  (  2,  7,  7)


 HEAD/DRAWDOWN PRINTOUT FLAG = 0     TOTAL BUDGET PRINTOUT FLAG = 0
 CELL-BY-CELL FLOW TERM FLAG = 1

 OUTPUT FLAGS FOR ALL LAYERS ARE THE SAME:
   HEAD    DRAWDOWN  HEAD  DRAWDOWN
 PRINTOUT  PRINTOUT  SAVE    SAVE
 ----------------------------------
     0         0       0       0


     0  LAKE CELLS ARE DRY.

 PERIOD     1     TIME STEP    66     TIME STEP LENGTH  5.8010E+01
 PERIOD TIME  2.1578E+03     TOTAL SIMULATION TIME  2.1578E+03


                 HYDROLOGIC BUDGET SUMMARIES FOR SIMULATED LAKES
     (ALL FLUID FLUXES ARE VOLUMES ADDED TO THE LAKE DURING PRESENT TIME STEP)
     -------------------------------------------------------------------------
 LAKE   STAGE     PRECIP       EVAP       RUNOFF
   1   147.40  4.2057E+06  3.7344E+06  0.0000E+00

            GROUND WATER            SURFACE WATER
 LAKE    INFLOW     OUTFLOW      INFLOW     OUTFLOW
   1  1.3016E+06  1.0910E+06  0.0000E+00  0.0000E+00

         WATER    CONNECTED LAKE   UPDATED     TIME-STEP          STAGE CHANGE
 LAKE     USE         INFLUX        VOLUME    SURFACE AREA   TIME STEP  CUMULATIVE
   1   0.0000E+00   0.0000E+00   2.7498E+08    6.2500E+06   1.0868E-01  3.7396E+01
 --------------------------------------------------------------------------------



            CUMULATIVE HYDROLOGIC BUDGET SUMMARIES FOR SIMULATED LAKES
     (ALL FLUID FLUXES ARE SUMS OF VOLUMES ADDED TO THE LAKE SINCE INITIAL TIME)
     ---------------------------------------------------------------------------
 LAKE       PRECIP       EVAP       RUNOFF
   1     1.5644E+08  1.3891E+08  0.0000E+00

            GROUND WATER            SURFACE WATER
 LAKE    INFLOW     OUTFLOW      INFLOW     OUTFLOW
   1  2.2635E+08  1.0086E+07  0.0000E+00  0.0000E+00

         WATER    CONNECTED LAKE
 LAKE     USE         INFLUX
   1   0.0000E+00   0.0000E+00
 --------------------------------------------------------------------------------

 
 SOLVING FOR HEAD 
 ALL LAKES CONVERGED AFTER   2  ITERATIONS
 ALL LAKES CONVERGED AFTER   2  ITERATIONS
 ALL LAKES CONVERGED AFTER   2  ITERATIONS
 ALL LAKES CONVERGED AFTER   2  ITERATIONS
 ALL LAKES CONVERGED AFTER   2  ITERATIONS
 ALL LAKES CONVERGED AFTER   2  ITERATIONS
 ALL LAKES CONVERGED AFTER   2  ITERATIONS
 ALL LAKES CONVERGED AFTER   2  ITERATIONS
 ALL LAKES CONVERGED AFTER   2  ITERATIONS
 ALL LAKES CONVERGED AFTER   2  ITERATIONS
 ALL LAKES CONVERGED AFTER   2  ITERATIONS
 ALL LAKES CONVERGED AFTER   2  ITERATIONS
 ALL LAKES CONVERGED AFTER   2  ITERATIONS
 ALL LAKES CONVERGED AFTER   2  ITERATIONS
 ALL LAKES CONVERGED AFTER   2  ITERATIONS
 ALL LAKES CONVERGED AFTER   2  ITERATIONS
 ALL LAKES CONVERGED AFTER   2  ITERATIONS
 ALL LAKES CONVERGED AFTER   2  ITERATIONS
 ALL LAKES CONVERGED AFTER   2  ITERATIONS
 ALL LAKES CONVERGED AFTER   2  ITERATIONS
 ALL LAKES CONVERGED AFTER   2  ITERATIONS
 ALL LAKES CONVERGED AFTER   2  ITERATIONS
 ALL LAKES CONVERGED AFTER   2  ITERATIONS
 ALL LAKES CONVERGED AFTER   2  ITERATIONS
 ALL LAKES CONVERGED AFTER   2  ITERATIONS
 ALL LAKES CONVERGED AFTER   2  ITERATIONS
 ALL LAKES CONVERGED AFTER   2  ITERATIONS
 ALL LAKES CONVERGED AFTER   2  ITERATIONS
 ALL LAKES CONVERGED AFTER   2  ITERATIONS
 ALL LAKES CONVERGED AFTER   2  ITERATIONS
 ALL LAKES CONVERGED AFTER   1  ITERATIONS
 ALL LAKES CONVERGED AFTER   2  ITERATIONS
 ALL LAKES CONVERGED AFTER   2  ITERATIONS
 ALL LAKES CONVERGED AFTER   2  ITERATIONS
 ALL LAKES CONVERGED AFTER   1  ITERATIONS
 ALL LAKES CONVERGED AFTER   1  ITERATIONS
    36 ITERATIONS FOR TIME STEP  67 IN STRESS PERIOD    1

 MAXIMUM HEAD CHANGE FOR EACH ITERATION:

    HEAD CHANGE   HEAD CHANGE   HEAD CHANGE   HEAD CHANGE   HEAD CHANGE
  LAYER,ROW,COL LAYER,ROW,COL LAYER,ROW,COL LAYER,ROW,COL LAYER,ROW,COL
 ----------------------------------------------------------------------
     0.1458E-01    0.1575E-01    0.1513E-01    0.1027E-01    0.1396E-01
  (  3,  9,  9) (  2, 10, 12) (  5, 10,  8) (  3,  8, 10) (  3, 10,  8)
     0.7505E-02    0.6706E-02    0.5445E-02    0.7505E-02    0.4206E-02
  (  2,  7,  7) (  5, 10,  8) (  3,  8, 10) (  3, 10,  8) (  3,  8, 10)
     0.5189E-02    0.3192E-02    0.3646E-02    0.2339E-02    0.3170E-02
  (  3,  8,  8) (  5,  9,  9) (  5, 10,  8) (  3,  8, 10) (  3, 10,  8)
     0.1707E-02    0.1515E-02    0.1226E-02    0.1704E-02    0.9510E-03
  (  2,  7,  7) (  5, 10,  8) (  3,  8, 10) (  3, 10,  8) (  2,  8, 11)
     0.1163E-02    0.7119E-03    0.8174E-03    0.5338E-03    0.7175E-03
  (  2,  7,  7) (  5,  9,  9) (  5, 10,  8) (  3,  8, 10) (  3, 10,  8)
     0.3821E-03    0.3402E-03    0.2756E-03    0.3812E-03    0.2107E-03
  (  2,  7,  7) (  5, 10,  8) (  3,  8, 10) (  5, 10,  8) (  3,  8, 10)
     0.2713E-03    0.1635E-03    0.1898E-03    0.1209E-03    0.1605E-03
  (  3,  8,  8) (  3, 10, 11) (  5, 10,  8) (  3,  8, 10) (  2, 11,  7)
     0.8645E-04
  (  2,  7,  7)


 HEAD/DRAWDOWN PRINTOUT FLAG = 0     TOTAL BUDGET PRINTOUT FLAG = 0
 CELL-BY-CELL FLOW TERM FLAG = 1

 OUTPUT FLAGS FOR ALL LAYERS ARE THE SAME:
   HEAD    DRAWDOWN  HEAD  DRAWDOWN
 PRINTOUT  PRINTOUT  SAVE    SAVE
 ----------------------------------
     0         0       0       0


     0  LAKE CELLS ARE DRY.

 PERIOD     1     TIME STEP    67     TIME STEP LENGTH  5.9170E+01
 PERIOD TIME  2.2170E+03     TOTAL SIMULATION TIME  2.2170E+03


                 HYDROLOGIC BUDGET SUMMARIES FOR SIMULATED LAKES
     (ALL FLUID FLUXES ARE VOLUMES ADDED TO THE LAKE DURING PRESENT TIME STEP)
     -------------------------------------------------------------------------
 LAKE   STAGE     PRECIP       EVAP       RUNOFF
   1   147.49  4.2898E+06  3.8091E+06  0.0000E+00

            GROUND WATER            SURFACE WATER
 LAKE    INFLOW     OUTFLOW      INFLOW     OUTFLOW
   1  1.2855E+06  1.1475E+06  0.0000E+00  0.0000E+00

         WATER    CONNECTED LAKE   UPDATED     TIME-STEP          STAGE CHANGE
 LAKE     USE         INFLUX        VOLUME    SURFACE AREA   TIME STEP  CUMULATIVE
   1   0.0000E+00   0.0000E+00   2.7559E+08    6.2500E+06   9.8637E-02  3.7495E+01
 --------------------------------------------------------------------------------



            CUMULATIVE HYDROLOGIC BUDGET SUMMARIES FOR SIMULATED LAKES
     (ALL FLUID FLUXES ARE SUMS OF VOLUMES ADDED TO THE LAKE SINCE INITIAL TIME)
     ---------------------------------------------------------------------------
 LAKE       PRECIP       EVAP       RUNOFF
   1     1.6073E+08  1.4272E+08  0.0000E+00

            GROUND WATER            SURFACE WATER
 LAKE    INFLOW     OUTFLOW      INFLOW     OUTFLOW
   1  2.2764E+08  1.1234E+07  0.0000E+00  0.0000E+00

         WATER    CONNECTED LAKE
 LAKE     USE         INFLUX
   1   0.0000E+00   0.0000E+00
 --------------------------------------------------------------------------------

 
 SOLVING FOR HEAD 
 ALL LAKES CONVERGED AFTER   3  ITERATIONS
 ALL LAKES CONVERGED AFTER   2  ITERATIONS
 ALL LAKES CONVERGED AFTER   2  ITERATIONS
 ALL LAKES CONVERGED AFTER   2  ITERATIONS
 ALL LAKES CONVERGED AFTER   2  ITERATIONS
 ALL LAKES CONVERGED AFTER   2  ITERATIONS
 ALL LAKES CONVERGED AFTER   2  ITERATIONS
 ALL LAKES CONVERGED AFTER   2  ITERATIONS
 ALL LAKES CONVERGED AFTER   2  ITERATIONS
 ALL LAKES CONVERGED AFTER   2  ITERATIONS
 ALL LAKES CONVERGED AFTER   2  ITERATIONS
 ALL LAKES CONVERGED AFTER   2  ITERATIONS
 ALL LAKES CONVERGED AFTER   2  ITERATIONS
 ALL LAKES CONVERGED AFTER   2  ITERATIONS
 ALL LAKES CONVERGED AFTER   2  ITERATIONS
 ALL LAKES CONVERGED AFTER   2  ITERATIONS
 ALL LAKES CONVERGED AFTER   2  ITERATIONS
 ALL LAKES CONVERGED AFTER   2  ITERATIONS
 ALL LAKES CONVERGED AFTER   2  ITERATIONS
 ALL LAKES CONVERGED AFTER   2  ITERATIONS
 ALL LAKES CONVERGED AFTER   2  ITERATIONS
 ALL LAKES CONVERGED AFTER   2  ITERATIONS
 ALL LAKES CONVERGED AFTER   2  ITERATIONS
 ALL LAKES CONVERGED AFTER   2  ITERATIONS
 ALL LAKES CONVERGED AFTER   2  ITERATIONS
 ALL LAKES CONVERGED AFTER   2  ITERATIONS
 ALL LAKES CONVERGED AFTER   2  ITERATIONS
 ALL LAKES CONVERGED AFTER   2  ITERATIONS
 ALL LAKES CONVERGED AFTER   2  ITERATIONS
 ALL LAKES CONVERGED AFTER   2  ITERATIONS
 ALL LAKES CONVERGED AFTER   1  ITERATIONS
 ALL LAKES CONVERGED AFTER   2  ITERATIONS
 ALL LAKES CONVERGED AFTER   2  ITERATIONS
 ALL LAKES CONVERGED AFTER   2  ITERATIONS
 ALL LAKES CONVERGED AFTER   1  ITERATIONS
 ALL LAKES CONVERGED AFTER   1  ITERATIONS
    36 ITERATIONS FOR TIME STEP  68 IN STRESS PERIOD    1

 MAXIMUM HEAD CHANGE FOR EACH ITERATION:

    HEAD CHANGE   HEAD CHANGE   HEAD CHANGE   HEAD CHANGE   HEAD CHANGE
  LAYER,ROW,COL LAYER,ROW,COL LAYER,ROW,COL LAYER,ROW,COL LAYER,ROW,COL
 ----------------------------------------------------------------------
     0.1300E-01    0.1414E-01    0.1358E-01    0.9238E-02    0.1256E-01
  (  3,  9,  9) (  2, 10, 12) (  5, 10,  8) (  3,  8, 10) (  3, 10,  8)
     0.6793E-02    0.6082E-02    0.4945E-02    0.6820E-02    0.3845E-02
  (  2,  7,  7) (  5, 10,  8) (  3,  8, 10) (  3, 10,  8) (  3,  8, 10)
     0.4740E-02    0.2912E-02    0.3345E-02    0.2157E-02    0.2912E-02
  (  3,  8,  8) (  5,  9,  9) (  5, 10,  8) (  3,  8, 10) (  3, 10,  8)
     0.1574E-02    0.1392E-02    0.1153E-02    0.1587E-02    0.8834E-03
  (  2,  7,  7) (  5, 10,  8) (  3,  8, 10) (  3, 10,  8) (  3,  8, 10)
     0.1096E-02    0.6789E-03    0.7723E-03    0.5040E-03    0.6780E-03
  (  3,  8,  8) (  5,  9,  9) (  5, 10,  8) (  3,  8, 10) (  3, 10,  8)
     0.3616E-03    0.3263E-03    0.2598E-03    0.3520E-03    0.2107E-03
  (  2,  7,  7) (  5, 10,  8) (  2,  9, 11) (  3, 10,  8) (  3,  8, 10)
     0.2529E-03    0.1513E-03    0.1657E-03    0.1209E-03    0.1691E-03
  (  3,  8,  8) (  5,  9,  9) (  5, 10,  8) (  3,  8, 10) (  3, 10,  8)
     0.8578E-04
  (  2,  7,  7)


 HEAD/DRAWDOWN PRINTOUT FLAG = 0     TOTAL BUDGET PRINTOUT FLAG = 0
 CELL-BY-CELL FLOW TERM FLAG = 1

 OUTPUT FLAGS FOR ALL LAYERS ARE THE SAME:
   HEAD    DRAWDOWN  HEAD  DRAWDOWN
 PRINTOUT  PRINTOUT  SAVE    SAVE
 ----------------------------------
     0         0       0       0


     0  LAKE CELLS ARE DRY.

 PERIOD     1     TIME STEP    68     TIME STEP LENGTH  6.0354E+01
 PERIOD TIME  2.2774E+03     TOTAL SIMULATION TIME  2.2774E+03


                 HYDROLOGIC BUDGET SUMMARIES FOR SIMULATED LAKES
     (ALL FLUID FLUXES ARE VOLUMES ADDED TO THE LAKE DURING PRESENT TIME STEP)
     -------------------------------------------------------------------------
 LAKE   STAGE     PRECIP       EVAP       RUNOFF
   1   147.58  4.3756E+06  3.8853E+06  0.0000E+00

            GROUND WATER            SURFACE WATER
 LAKE    INFLOW     OUTFLOW      INFLOW     OUTFLOW
   1  1.2725E+06  1.2024E+06  0.0000E+00  0.0000E+00

         WATER    CONNECTED LAKE   UPDATED     TIME-STEP          STAGE CHANGE
 LAKE     USE         INFLUX        VOLUME    SURFACE AREA   TIME STEP  CUMULATIVE
   1   0.0000E+00   0.0000E+00   2.7615E+08    6.2500E+06   8.9238E-02  3.7584E+01
 --------------------------------------------------------------------------------



            CUMULATIVE HYDROLOGIC BUDGET SUMMARIES FOR SIMULATED LAKES
     (ALL FLUID FLUXES ARE SUMS OF VOLUMES ADDED TO THE LAKE SINCE INITIAL TIME)
     ---------------------------------------------------------------------------
 LAKE       PRECIP       EVAP       RUNOFF
   1     1.6511E+08  1.4660E+08  0.0000E+00

            GROUND WATER            SURFACE WATER
 LAKE    INFLOW     OUTFLOW      INFLOW     OUTFLOW
   1  2.2891E+08  1.2436E+07  0.0000E+00  0.0000E+00

         WATER    CONNECTED LAKE
 LAKE     USE         INFLUX
   1   0.0000E+00   0.0000E+00
 --------------------------------------------------------------------------------

 
 SOLVING FOR HEAD 
 ALL LAKES CONVERGED AFTER   2  ITERATIONS
 ALL LAKES CONVERGED AFTER   2  ITERATIONS
 ALL LAKES CONVERGED AFTER   2  ITERATIONS
 ALL LAKES CONVERGED AFTER   2  ITERATIONS
 ALL LAKES CONVERGED AFTER   2  ITERATIONS
 ALL LAKES CONVERGED AFTER   2  ITERATIONS
 ALL LAKES CONVERGED AFTER   2  ITERATIONS
 ALL LAKES CONVERGED AFTER   2  ITERATIONS
 ALL LAKES CONVERGED AFTER   2  ITERATIONS
 ALL LAKES CONVERGED AFTER   2  ITERATIONS
 ALL LAKES CONVERGED AFTER   2  ITERATIONS
 ALL LAKES CONVERGED AFTER   2  ITERATIONS
 ALL LAKES CONVERGED AFTER   2  ITERATIONS
 ALL LAKES CONVERGED AFTER   2  ITERATIONS
 ALL LAKES CONVERGED AFTER   2  ITERATIONS
 ALL LAKES CONVERGED AFTER   2  ITERATIONS
 ALL LAKES CONVERGED AFTER   2  ITERATIONS
 ALL LAKES CONVERGED AFTER   2  ITERATIONS
 ALL LAKES CONVERGED AFTER   2  ITERATIONS
 ALL LAKES CONVERGED AFTER   2  ITERATIONS
 ALL LAKES CONVERGED AFTER   2  ITERATIONS
 ALL LAKES CONVERGED AFTER   2  ITERATIONS
 ALL LAKES CONVERGED AFTER   2  ITERATIONS
 ALL LAKES CONVERGED AFTER   2  ITERATIONS
 ALL LAKES CONVERGED AFTER   2  ITERATIONS
 ALL LAKES CONVERGED AFTER   2  ITERATIONS
 ALL LAKES CONVERGED AFTER   2  ITERATIONS
 ALL LAKES CONVERGED AFTER   2  ITERATIONS
 ALL LAKES CONVERGED AFTER   2  ITERATIONS
 ALL LAKES CONVERGED AFTER   2  ITERATIONS
 ALL LAKES CONVERGED AFTER   1  ITERATIONS
 ALL LAKES CONVERGED AFTER   2  ITERATIONS
 ALL LAKES CONVERGED AFTER   2  ITERATIONS
 ALL LAKES CONVERGED AFTER   2  ITERATIONS
 ALL LAKES CONVERGED AFTER   1  ITERATIONS
 ALL LAKES CONVERGED AFTER   1  ITERATIONS
    36 ITERATIONS FOR TIME STEP  69 IN STRESS PERIOD    1

 MAXIMUM HEAD CHANGE FOR EACH ITERATION:

    HEAD CHANGE   HEAD CHANGE   HEAD CHANGE   HEAD CHANGE   HEAD CHANGE
  LAYER,ROW,COL LAYER,ROW,COL LAYER,ROW,COL LAYER,ROW,COL LAYER,ROW,COL
 ----------------------------------------------------------------------
     0.1157E-01    0.1266E-01    0.1213E-01    0.8280E-02    0.1127E-01
  (  3,  9,  9) (  2, 10, 12) (  5, 10,  8) (  3,  8, 10) (  3, 10,  8)
     0.6104E-02    0.5482E-02    0.4474E-02    0.6183E-02    0.3478E-02
  (  2,  7,  7) (  5, 10,  8) (  3,  8, 10) (  3, 10,  8) (  2,  8, 11)
     0.4309E-02    0.2662E-02    0.3047E-02    0.1966E-02    0.2682E-02
  (  3,  8,  8) (  5,  9,  9) (  5, 10,  8) (  3,  8, 10) (  3, 10,  8)
     0.1449E-02    0.1298E-02    0.1062E-02    0.1456E-02    0.8322E-03
  (  2,  7,  7) (  5, 10,  8) (  3,  8, 10) (  3, 10,  8) (  2,  8, 11)
     0.1023E-02    0.6354E-03    0.7236E-03    0.4735E-03    0.6284E-03
  (  2,  7,  7) (  5,  9,  9) (  5, 10,  8) (  2,  9, 11) (  3, 10,  8)
     0.3430E-03    0.3055E-03    0.2495E-03    0.3426E-03    0.1980E-03
  (  2,  7,  7) (  5, 10,  8) (  2,  9, 11) (  3, 10,  8) (  2,  8, 11)
     0.2415E-03    0.1502E-03    0.1651E-03    0.1108E-03    0.1494E-03
  (  2,  7,  7) (  5,  9,  9) (  5, 10,  8) (  3,  8, 10) (  3, 10,  8)
     0.8572E-04
  (  2,  7,  7)


 HEAD/DRAWDOWN PRINTOUT FLAG = 0     TOTAL BUDGET PRINTOUT FLAG = 0
 CELL-BY-CELL FLOW TERM FLAG = 1

 OUTPUT FLAGS FOR ALL LAYERS ARE THE SAME:
   HEAD    DRAWDOWN  HEAD  DRAWDOWN
 PRINTOUT  PRINTOUT  SAVE    SAVE
 ----------------------------------
     0         0       0       0


     0  LAKE CELLS ARE DRY.

 PERIOD     1     TIME STEP    69     TIME STEP LENGTH  6.1561E+01
 PERIOD TIME  2.3389E+03     TOTAL SIMULATION TIME  2.3389E+03


                 HYDROLOGIC BUDGET SUMMARIES FOR SIMULATED LAKES
     (ALL FLUID FLUXES ARE VOLUMES ADDED TO THE LAKE DURING PRESENT TIME STEP)
     -------------------------------------------------------------------------
 LAKE   STAGE     PRECIP       EVAP       RUNOFF
   1   147.66  4.4632E+06  3.9630E+06  0.0000E+00

            GROUND WATER            SURFACE WATER
 LAKE    INFLOW     OUTFLOW      INFLOW     OUTFLOW
   1  1.2682E+06  1.2622E+06  0.0000E+00  0.0000E+00

         WATER    CONNECTED LAKE   UPDATED     TIME-STEP          STAGE CHANGE
 LAKE     USE         INFLUX        VOLUME    SURFACE AREA   TIME STEP  CUMULATIVE
   1   0.0000E+00   0.0000E+00   2.7665E+08    6.2500E+06   8.0552E-02  3.7665E+01
 --------------------------------------------------------------------------------



            CUMULATIVE HYDROLOGIC BUDGET SUMMARIES FOR SIMULATED LAKES
     (ALL FLUID FLUXES ARE SUMS OF VOLUMES ADDED TO THE LAKE SINCE INITIAL TIME)
     ---------------------------------------------------------------------------
 LAKE       PRECIP       EVAP       RUNOFF
   1     1.6957E+08  1.5057E+08  0.0000E+00

            GROUND WATER            SURFACE WATER
 LAKE    INFLOW     OUTFLOW      INFLOW     OUTFLOW
   1  2.3018E+08  1.3699E+07  0.0000E+00  0.0000E+00

         WATER    CONNECTED LAKE
 LAKE     USE         INFLUX
   1   0.0000E+00   0.0000E+00
 --------------------------------------------------------------------------------

 
 SOLVING FOR HEAD 
 ALL LAKES CONVERGED AFTER   2  ITERATIONS
 ALL LAKES CONVERGED AFTER   2  ITERATIONS
 ALL LAKES CONVERGED AFTER   2  ITERATIONS
 ALL LAKES CONVERGED AFTER   2  ITERATIONS
 ALL LAKES CONVERGED AFTER   2  ITERATIONS
 ALL LAKES CONVERGED AFTER   2  ITERATIONS
 ALL LAKES CONVERGED AFTER   2  ITERATIONS
 ALL LAKES CONVERGED AFTER   2  ITERATIONS
 ALL LAKES CONVERGED AFTER   2  ITERATIONS
 ALL LAKES CONVERGED AFTER   2  ITERATIONS
 ALL LAKES CONVERGED AFTER   2  ITERATIONS
 ALL LAKES CONVERGED AFTER   2  ITERATIONS
 ALL LAKES CONVERGED AFTER   2  ITERATIONS
 ALL LAKES CONVERGED AFTER   2  ITERATIONS
 ALL LAKES CONVERGED AFTER   2  ITERATIONS
 ALL LAKES CONVERGED AFTER   2  ITERATIONS
 ALL LAKES CONVERGED AFTER   2  ITERATIONS
 ALL LAKES CONVERGED AFTER   2  ITERATIONS
 ALL LAKES CONVERGED AFTER   2  ITERATIONS
 ALL LAKES CONVERGED AFTER   2  ITERATIONS
 ALL LAKES CONVERGED AFTER   2  ITERATIONS
 ALL LAKES CONVERGED AFTER   2  ITERATIONS
 ALL LAKES CONVERGED AFTER   2  ITERATIONS
 ALL LAKES CONVERGED AFTER   2  ITERATIONS
 ALL LAKES CONVERGED AFTER   2  ITERATIONS
 ALL LAKES CONVERGED AFTER   2  ITERATIONS
 ALL LAKES CONVERGED AFTER   2  ITERATIONS
 ALL LAKES CONVERGED AFTER   2  ITERATIONS
 ALL LAKES CONVERGED AFTER   2  ITERATIONS
 ALL LAKES CONVERGED AFTER   2  ITERATIONS
 ALL LAKES CONVERGED AFTER   1  ITERATIONS
 ALL LAKES CONVERGED AFTER   2  ITERATIONS
 ALL LAKES CONVERGED AFTER   2  ITERATIONS
 ALL LAKES CONVERGED AFTER   2  ITERATIONS
 ALL LAKES CONVERGED AFTER   1  ITERATIONS
 ALL LAKES CONVERGED AFTER   1  ITERATIONS
    36 ITERATIONS FOR TIME STEP  70 IN STRESS PERIOD    1

 MAXIMUM HEAD CHANGE FOR EACH ITERATION:

    HEAD CHANGE   HEAD CHANGE   HEAD CHANGE   HEAD CHANGE   HEAD CHANGE
  LAYER,ROW,COL LAYER,ROW,COL LAYER,ROW,COL LAYER,ROW,COL LAYER,ROW,COL
 ----------------------------------------------------------------------
     0.1028E-01    0.1131E-01    0.1081E-01    0.7403E-02    0.1010E-01
  (  3,  9,  9) (  2, 10, 12) (  5, 10,  8) (  3,  8, 10) (  3, 10,  8)
     0.5503E-02    0.4939E-02    0.4044E-02    0.5593E-02    0.3162E-02
  (  2,  7,  7) (  5, 10,  8) (  3,  8, 10) (  3, 10,  8) (  3,  8, 10)
     0.3906E-02    0.2433E-02    0.2788E-02    0.1795E-02    0.2453E-02
  (  3,  8,  8) (  5,  9,  9) (  5, 10,  8) (  3,  8, 10) (  3, 10,  8)
     0.1335E-02    0.1187E-02    0.9801E-03    0.1360E-02    0.7727E-03
  (  2,  7,  7) (  5, 10,  8) (  3,  8, 10) (  3, 10,  8) (  3,  8, 10)
     0.9461E-03    0.5820E-03    0.6710E-03    0.4439E-03    0.5987E-03
  (  3,  8,  8) (  5,  9,  9) (  5, 10,  8) (  2,  9, 11) (  3, 10,  8)
     0.3153E-03    0.2827E-03    0.2344E-03    0.3331E-03    0.1806E-03
  (  2,  7,  7) (  5, 10,  8) (  3,  8, 10) (  3, 10,  8) (  3,  8, 10)
     0.2247E-03    0.1516E-03    0.1709E-03    0.1085E-03    0.1318E-03
  (  3,  8,  8) (  3, 10, 11) (  5, 10,  8) (  2,  8, 11) (  2, 11,  7)
     0.7405E-04
  (  3,  8,  9)


 HEAD/DRAWDOWN PRINTOUT FLAG = 1     TOTAL BUDGET PRINTOUT FLAG = 1
 CELL-BY-CELL FLOW TERM FLAG = 1

 OUTPUT FLAGS FOR EACH LAYER:
          HEAD    DRAWDOWN  HEAD  DRAWDOWN
 LAYER  PRINTOUT  PRINTOUT  SAVE    SAVE
 -----------------------------------------
    1       0         0       0       0
    2       0         0       0       0
    3       0         0       0       0
    4       0         0       0       0
    5       1         0       0       0


     0  LAKE CELLS ARE DRY.

 PERIOD     1     TIME STEP    70     TIME STEP LENGTH  6.2792E+01
 PERIOD TIME  2.4017E+03     TOTAL SIMULATION TIME  2.4017E+03


                 HYDROLOGIC BUDGET SUMMARIES FOR SIMULATED LAKES
     (ALL FLUID FLUXES ARE VOLUMES ADDED TO THE LAKE DURING PRESENT TIME STEP)
     -------------------------------------------------------------------------
 LAKE   STAGE     PRECIP       EVAP       RUNOFF
   1   147.74  4.5524E+06  4.0422E+06  0.0000E+00

            GROUND WATER            SURFACE WATER
 LAKE    INFLOW     OUTFLOW      INFLOW     OUTFLOW
   1  1.2663E+06  1.3201E+06  0.0000E+00  0.0000E+00

         WATER    CONNECTED LAKE   UPDATED     TIME-STEP          STAGE CHANGE
 LAKE     USE         INFLUX        VOLUME    SURFACE AREA   TIME STEP  CUMULATIVE
   1   0.0000E+00   0.0000E+00   2.7711E+08    6.2500E+06   7.2588E-02  3.7737E+01
 --------------------------------------------------------------------------------



            CUMULATIVE HYDROLOGIC BUDGET SUMMARIES FOR SIMULATED LAKES
     (ALL FLUID FLUXES ARE SUMS OF VOLUMES ADDED TO THE LAKE SINCE INITIAL TIME)
     ---------------------------------------------------------------------------
 LAKE       PRECIP       EVAP       RUNOFF
   1     1.7412E+08  1.5461E+08  0.0000E+00

            GROUND WATER            SURFACE WATER
 LAKE    INFLOW     OUTFLOW      INFLOW     OUTFLOW
   1  2.3145E+08  1.5019E+07  0.0000E+00  0.0000E+00

         WATER    CONNECTED LAKE
 LAKE     USE         INFLUX
   1   0.0000E+00   0.0000E+00
 --------------------------------------------------------------------------------

1
              HEAD IN LAYER   5 AT END OF TIME STEP  70 IN STRESS PERIOD    1
  ---------------------------------------------------------------------------

          1      2      3      4      5      6      7      8      9     10
 .........................................................................
   1   160.0  158.9  157.3  155.8  154.2  152.7  151.5  150.8  150.0  149.2
   2   160.0  158.6  156.7  155.0  153.4  151.8  150.7  149.9  149.1  148.4
   3   160.0  158.4  156.3  154.4  152.7  151.1  149.9  149.1  148.4  147.6
   4   160.0  158.3  156.0  154.1  152.4  150.7  149.5  148.7  148.0  147.2
   5   160.0  158.2  155.9  153.9  152.1  150.4  149.2  148.5  147.8  147.0
   6   160.0  158.2  155.8  153.8  151.9  150.1  148.8  148.2  147.7  147.2
   7   160.0  158.2  155.8  153.8  151.8  149.8  147.8  147.8  147.7  147.7
   8   160.0  158.2  155.8  153.7  151.8  149.7  147.8  147.7  147.7  147.7
   9   160.0  158.2  155.8  153.7  151.7  149.7  147.8  147.7  147.7  147.7
  10   160.0  158.2  155.8  153.7  151.8  149.7  147.8  147.7  147.7  147.7
  11   160.0  158.2  155.8  153.8  151.8  149.8  147.8  147.8  147.7  147.7
  12   160.0  158.2  155.8  153.8  151.9  150.1  148.8  148.2  147.7  147.2
  13   160.0  158.2  155.9  153.9  152.1  150.4  149.2  148.5  147.8  147.0
  14   160.0  158.3  156.0  154.1  152.4  150.7  149.5  148.7  148.0  147.2
  15   160.0  158.4  156.3  154.4  152.7  151.1  149.9  149.1  148.4  147.6
  16   160.0  158.6  156.7  155.0  153.4  151.8  150.7  149.9  149.1  148.4
  17   160.0  158.9  157.3  155.8  154.2  152.7  151.5  150.8  150.0  149.2
1
              HEAD IN LAYER   5 AT END OF TIME STEP  70 IN STRESS PERIOD    1
  ---------------------------------------------------------------------------

         11     12     13     14     15     16     17
 ....................................................
   1   148.5  147.3  145.8  144.2  142.7  141.1  140.0
   2   147.6  146.4  144.9  143.4  141.9  140.6  140.0
   3   146.8  145.7  144.2  142.7  141.3  140.3  140.0
   4   146.4  145.3  143.8  142.4  141.1  140.2  140.0
   5   146.3  145.2  143.7  142.2  141.0  140.1  140.0
   6   146.6  145.3  143.7  142.2  140.9  140.1  140.0
   7   147.6  145.6  143.7  142.2  140.9  140.1  140.0
   8   147.7  145.7  143.8  142.2  140.9  140.1  140.0
   9   147.7  145.7  143.8  142.2  140.9  140.1  140.0
  10   147.7  145.7  143.8  142.2  140.9  140.1  140.0
  11   147.6  145.6  143.7  142.2  140.9  140.1  140.0
  12   146.6  145.3  143.7  142.2  140.9  140.1  140.0
  13   146.3  145.2  143.7  142.2  141.0  140.1  140.0
  14   146.4  145.3  143.8  142.4  141.1  140.2  140.0
  15   146.8  145.7  144.2  142.7  141.3  140.3  140.0
  16   147.6  146.4  144.9  143.4  141.9  140.6  140.0
  17   148.5  147.3  145.8  144.2  142.7  141.1  140.0
1
  VOLUMETRIC BUDGET FOR ENTIRE MODEL AT END OF TIME STEP 70 IN STRESS PERIOD   1
  ------------------------------------------------------------------------------

     CUMULATIVE VOLUMES      L**3       RATES FOR THIS TIME STEP      L**3/T
     ------------------                 ------------------------

           IN:                                      IN:
           ---                                      ---
             STORAGE =       31346.7051               STORAGE =           0.0000
       CONSTANT HEAD =   856437248.0000         CONSTANT HEAD =      168183.6406
                  ET =           0.0000                    ET =           0.0000
            RECHARGE =  4178966784.0000              RECHARGE =     1740000.0000
     SPECIFIED FLOWS =           0.0000       SPECIFIED FLOWS =           0.0000
       LAKE  SEEPAGE =    15018664.0000         LAKE  SEEPAGE =       21023.7188

            TOTAL IN =  5050454016.0000              TOTAL IN =     1929207.3750

          OUT:                                     OUT:
          ----                                     ----
             STORAGE =  1009556672.0000               STORAGE =        4523.3789
       CONSTANT HEAD =    13918231.0000         CONSTANT HEAD =        9089.8711
                  ET =  3795506688.0000                    ET =     1895426.2500
            RECHARGE =           0.0000              RECHARGE =           0.0000
     SPECIFIED FLOWS =           0.0000       SPECIFIED FLOWS =           0.0000
       LAKE  SEEPAGE =   231447120.0000         LAKE  SEEPAGE =       20165.9883

           TOTAL OUT =  5050428928.0000             TOTAL OUT =     1929205.5000

            IN - OUT =       25088.0000              IN - OUT =           1.8750

 PERCENT DISCREPANCY =           0.00     PERCENT DISCREPANCY =           0.00






          TIME SUMMARY AT END OF TIME STEP  70 IN STRESS PERIOD    1
                    SECONDS     MINUTES      HOURS       DAYS        YEARS
                    -----------------------------------------------------------
   TIME STEP LENGTH 5.42522E+06  90420.      1507.0      62.792     0.17191    
 STRESS PERIOD TIME 2.07507E+08 3.45846E+06  57641.      2401.7      6.5755    
         TOTAL TIME 2.07507E+08 3.45846E+06  57641.      2401.7      6.5755    
1
 
 SOLVING FOR HEAD 
 ALL LAKES CONVERGED AFTER   2  ITERATIONS
 ALL LAKES CONVERGED AFTER   2  ITERATIONS
 ALL LAKES CONVERGED AFTER   2  ITERATIONS
 ALL LAKES CONVERGED AFTER   2  ITERATIONS
 ALL LAKES CONVERGED AFTER   2  ITERATIONS
 ALL LAKES CONVERGED AFTER   2  ITERATIONS
 ALL LAKES CONVERGED AFTER   2  ITERATIONS
 ALL LAKES CONVERGED AFTER   2  ITERATIONS
 ALL LAKES CONVERGED AFTER   2  ITERATIONS
 ALL LAKES CONVERGED AFTER   2  ITERATIONS
 ALL LAKES CONVERGED AFTER   2  ITERATIONS
 ALL LAKES CONVERGED AFTER   2  ITERATIONS
 ALL LAKES CONVERGED AFTER   2  ITERATIONS
 ALL LAKES CONVERGED AFTER   2  ITERATIONS
 ALL LAKES CONVERGED AFTER   2  ITERATIONS
 ALL LAKES CONVERGED AFTER   2  ITERATIONS
 ALL LAKES CONVERGED AFTER   2  ITERATIONS
 ALL LAKES CONVERGED AFTER   2  ITERATIONS
 ALL LAKES CONVERGED AFTER   2  ITERATIONS
 ALL LAKES CONVERGED AFTER   2  ITERATIONS
 ALL LAKES CONVERGED AFTER   2  ITERATIONS
 ALL LAKES CONVERGED AFTER   2  ITERATIONS
 ALL LAKES CONVERGED AFTER   2  ITERATIONS
 ALL LAKES CONVERGED AFTER   2  ITERATIONS
 ALL LAKES CONVERGED AFTER   2  ITERATIONS
 ALL LAKES CONVERGED AFTER   2  ITERATIONS
 ALL LAKES CONVERGED AFTER   2  ITERATIONS
 ALL LAKES CONVERGED AFTER   2  ITERATIONS
 ALL LAKES CONVERGED AFTER   2  ITERATIONS
 ALL LAKES CONVERGED AFTER   2  ITERATIONS
 ALL LAKES CONVERGED AFTER   1  ITERATIONS
 ALL LAKES CONVERGED AFTER   2  ITERATIONS
 ALL LAKES CONVERGED AFTER   2  ITERATIONS
 ALL LAKES CONVERGED AFTER   2  ITERATIONS
 ALL LAKES CONVERGED AFTER   1  ITERATIONS
 ALL LAKES CONVERGED AFTER   1  ITERATIONS
    36 ITERATIONS FOR TIME STEP  71 IN STRESS PERIOD    1

 MAXIMUM HEAD CHANGE FOR EACH ITERATION:

    HEAD CHANGE   HEAD CHANGE   HEAD CHANGE   HEAD CHANGE   HEAD CHANGE
  LAYER,ROW,COL LAYER,ROW,COL LAYER,ROW,COL LAYER,ROW,COL LAYER,ROW,COL
 ----------------------------------------------------------------------
     0.9105E-02    0.1007E-01    0.9623E-02    0.6606E-02    0.9030E-02
  (  3,  9,  9) (  2, 10, 12) (  5, 10,  8) (  3,  8, 10) (  3, 10,  8)
     0.4927E-02    0.4439E-02    0.3646E-02    0.5041E-02    0.2861E-02
  (  2,  7,  7) (  5, 10,  8) (  3,  8, 10) (  3, 10,  8) (  3,  8, 10)
     0.3541E-02    0.2198E-02    0.2538E-02    0.1653E-02    0.2254E-02
  (  3,  8,  8) (  5,  9,  9) (  5, 10,  8) (  3,  8, 10) (  3, 10,  8)
     0.1221E-02    0.1104E-02    0.8992E-03    0.1237E-02    0.7126E-03
  (  2,  7,  7) (  5, 10,  8) (  2,  9, 11) (  3, 10,  8) (  3,  8, 10)
     0.8713E-03    0.5482E-03    0.6264E-03    0.4131E-03    0.5576E-03
  (  3,  8,  8) (  5,  9,  9) (  5, 10,  8) (  3,  8, 10) (  3, 10,  8)
     0.3053E-03    0.2709E-03    0.2146E-03    0.3046E-03    0.1684E-03
  (  2,  7,  7) (  5, 10,  8) (  3,  8, 10) (  3, 10,  8) (  2,  8, 11)
     0.2139E-03    0.1293E-03    0.1656E-03    0.1080E-03    0.1324E-03
  (  2,  7,  7) (  5,  9,  9) (  5, 10,  8) (  2,  7, 11) (  2, 11,  7)
     0.7407E-04
  (  3,  9, 10)


 HEAD/DRAWDOWN PRINTOUT FLAG = 0     TOTAL BUDGET PRINTOUT FLAG = 0
 CELL-BY-CELL FLOW TERM FLAG = 1

 OUTPUT FLAGS FOR ALL LAYERS ARE THE SAME:
   HEAD    DRAWDOWN  HEAD  DRAWDOWN
 PRINTOUT  PRINTOUT  SAVE    SAVE
 ----------------------------------
     0         0       0       0


     0  LAKE CELLS ARE DRY.

 PERIOD     1     TIME STEP    71     TIME STEP LENGTH  6.4048E+01
 PERIOD TIME  2.4658E+03     TOTAL SIMULATION TIME  2.4658E+03


                 HYDROLOGIC BUDGET SUMMARIES FOR SIMULATED LAKES
     (ALL FLUID FLUXES ARE VOLUMES ADDED TO THE LAKE DURING PRESENT TIME STEP)
     -------------------------------------------------------------------------
 LAKE   STAGE     PRECIP       EVAP       RUNOFF
   1   147.80  4.6435E+06  4.1231E+06  0.0000E+00

            GROUND WATER            SURFACE WATER
 LAKE    INFLOW     OUTFLOW      INFLOW     OUTFLOW
   1  1.2665E+06  1.3766E+06  0.0000E+00  0.0000E+00

         WATER    CONNECTED LAKE   UPDATED     TIME-STEP          STAGE CHANGE
 LAKE     USE         INFLUX        VOLUME    SURFACE AREA   TIME STEP  CUMULATIVE
   1   0.0000E+00   0.0000E+00   2.7752E+08    6.2500E+06   6.5248E-02  3.7803E+01
 --------------------------------------------------------------------------------



            CUMULATIVE HYDROLOGIC BUDGET SUMMARIES FOR SIMULATED LAKES
     (ALL FLUID FLUXES ARE SUMS OF VOLUMES ADDED TO THE LAKE SINCE INITIAL TIME)
     ---------------------------------------------------------------------------
 LAKE       PRECIP       EVAP       RUNOFF
   1     1.7877E+08  1.5873E+08  0.0000E+00

            GROUND WATER            SURFACE WATER
 LAKE    INFLOW     OUTFLOW      INFLOW     OUTFLOW
   1  2.3271E+08  1.6395E+07  0.0000E+00  0.0000E+00

         WATER    CONNECTED LAKE
 LAKE     USE         INFLUX
   1   0.0000E+00   0.0000E+00
 --------------------------------------------------------------------------------

 
 SOLVING FOR HEAD 
 ALL LAKES CONVERGED AFTER   3  ITERATIONS
 ALL LAKES CONVERGED AFTER   2  ITERATIONS
 ALL LAKES CONVERGED AFTER   2  ITERATIONS
 ALL LAKES CONVERGED AFTER   2  ITERATIONS
 ALL LAKES CONVERGED AFTER   2  ITERATIONS
 ALL LAKES CONVERGED AFTER   2  ITERATIONS
 ALL LAKES CONVERGED AFTER   2  ITERATIONS
 ALL LAKES CONVERGED AFTER   2  ITERATIONS
 ALL LAKES CONVERGED AFTER   2  ITERATIONS
 ALL LAKES CONVERGED AFTER   2  ITERATIONS
 ALL LAKES CONVERGED AFTER   2  ITERATIONS
 ALL LAKES CONVERGED AFTER   2  ITERATIONS
 ALL LAKES CONVERGED AFTER   2  ITERATIONS
 ALL LAKES CONVERGED AFTER   2  ITERATIONS
 ALL LAKES CONVERGED AFTER   2  ITERATIONS
 ALL LAKES CONVERGED AFTER   2  ITERATIONS
 ALL LAKES CONVERGED AFTER   2  ITERATIONS
 ALL LAKES CONVERGED AFTER   2  ITERATIONS
 ALL LAKES CONVERGED AFTER   2  ITERATIONS
 ALL LAKES CONVERGED AFTER   2  ITERATIONS
 ALL LAKES CONVERGED AFTER   2  ITERATIONS
 ALL LAKES CONVERGED AFTER   2  ITERATIONS
 ALL LAKES CONVERGED AFTER   2  ITERATIONS
 ALL LAKES CONVERGED AFTER   2  ITERATIONS
 ALL LAKES CONVERGED AFTER   2  ITERATIONS
 ALL LAKES CONVERGED AFTER   2  ITERATIONS
 ALL LAKES CONVERGED AFTER   2  ITERATIONS
 ALL LAKES CONVERGED AFTER   2  ITERATIONS
 ALL LAKES CONVERGED AFTER   1  ITERATIONS
 ALL LAKES CONVERGED AFTER   2  ITERATIONS
 ALL LAKES CONVERGED AFTER   1  ITERATIONS
 ALL LAKES CONVERGED AFTER   2  ITERATIONS
 ALL LAKES CONVERGED AFTER   1  ITERATIONS
 ALL LAKES CONVERGED AFTER   1  ITERATIONS
    34 ITERATIONS FOR TIME STEP  72 IN STRESS PERIOD    1

 MAXIMUM HEAD CHANGE FOR EACH ITERATION:

    HEAD CHANGE   HEAD CHANGE   HEAD CHANGE   HEAD CHANGE   HEAD CHANGE
  LAYER,ROW,COL LAYER,ROW,COL LAYER,ROW,COL LAYER,ROW,COL LAYER,ROW,COL
 ----------------------------------------------------------------------
     0.8045E-02    0.8957E-02    0.8558E-02    0.5901E-02    0.8052E-02
  (  3,  9,  9) (  2, 10, 12) (  5, 10,  8) (  3,  8, 10) (  3, 10,  8)
     0.4406E-02    0.3985E-02    0.3278E-02    0.4538E-02    0.2589E-02
  (  2,  7,  7) (  5, 10,  8) (  3,  8, 10) (  3, 10,  8) (  3,  8, 10)
     0.3203E-02    0.1992E-02    0.2299E-02    0.1502E-02    0.2034E-02
  (  3,  8,  8) (  5,  9,  9) (  5, 10,  8) (  3,  8, 10) (  3, 10,  8)
     0.1126E-02    0.1005E-02    0.8266E-03    0.1141E-02    0.6539E-03
  (  2,  7,  7) (  5, 10,  8) (  3,  8, 10) (  3, 10,  8) (  2,  8, 11)
     0.8009E-03    0.5050E-03    0.5774E-03    0.3743E-03    0.5082E-03
  (  2,  7,  7) (  5,  9,  9) (  5, 10,  8) (  2,  7, 11) (  3, 10,  8)
     0.2862E-03    0.2503E-03    0.2140E-03    0.2842E-03    0.1706E-03
  (  2,  7,  7) (  5, 10,  8) (  3,  8, 10) (  3, 10,  8) (  3,  8, 10)
     0.2153E-03    0.1299E-03    0.1458E-03    0.9070E-04
  (  3, 10, 10) (  5,  9,  9) (  5, 10,  8) (  3,  8, 10)


 HEAD/DRAWDOWN PRINTOUT FLAG = 0     TOTAL BUDGET PRINTOUT FLAG = 0
 CELL-BY-CELL FLOW TERM FLAG = 1

 OUTPUT FLAGS FOR ALL LAYERS ARE THE SAME:
   HEAD    DRAWDOWN  HEAD  DRAWDOWN
 PRINTOUT  PRINTOUT  SAVE    SAVE
 ----------------------------------
     0         0       0       0


     0  LAKE CELLS ARE DRY.

 PERIOD     1     TIME STEP    72     TIME STEP LENGTH  6.5329E+01
 PERIOD TIME  2.5311E+03     TOTAL SIMULATION TIME  2.5311E+03


                 HYDROLOGIC BUDGET SUMMARIES FOR SIMULATED LAKES
     (ALL FLUID FLUXES ARE VOLUMES ADDED TO THE LAKE DURING PRESENT TIME STEP)
     -------------------------------------------------------------------------
 LAKE   STAGE     PRECIP       EVAP       RUNOFF
   1   147.86  4.7363E+06  4.2055E+06  0.0000E+00

            GROUND WATER            SURFACE WATER
 LAKE    INFLOW     OUTFLOW      INFLOW     OUTFLOW
   1  1.2679E+06  1.4320E+06  0.0000E+00  0.0000E+00

         WATER    CONNECTED LAKE   UPDATED     TIME-STEP          STAGE CHANGE
 LAKE     USE         INFLUX        VOLUME    SURFACE AREA   TIME STEP  CUMULATIVE
   1   0.0000E+00   0.0000E+00   2.7788E+08    6.2500E+06   5.8395E-02  3.7861E+01
 --------------------------------------------------------------------------------



            CUMULATIVE HYDROLOGIC BUDGET SUMMARIES FOR SIMULATED LAKES
     (ALL FLUID FLUXES ARE SUMS OF VOLUMES ADDED TO THE LAKE SINCE INITIAL TIME)
     ---------------------------------------------------------------------------
 LAKE       PRECIP       EVAP       RUNOFF
   1     1.8350E+08  1.6294E+08  0.0000E+00

            GROUND WATER            SURFACE WATER
 LAKE    INFLOW     OUTFLOW      INFLOW     OUTFLOW
   1  2.3398E+08  1.7827E+07  0.0000E+00  0.0000E+00

         WATER    CONNECTED LAKE
 LAKE     USE         INFLUX
   1   0.0000E+00   0.0000E+00
 --------------------------------------------------------------------------------

 
 SOLVING FOR HEAD 
 ALL LAKES CONVERGED AFTER   2  ITERATIONS
 ALL LAKES CONVERGED AFTER   2  ITERATIONS
 ALL LAKES CONVERGED AFTER   2  ITERATIONS
 ALL LAKES CONVERGED AFTER   2  ITERATIONS
 ALL LAKES CONVERGED AFTER   2  ITERATIONS
 ALL LAKES CONVERGED AFTER   2  ITERATIONS
 ALL LAKES CONVERGED AFTER   2  ITERATIONS
 ALL LAKES CONVERGED AFTER   2  ITERATIONS
 ALL LAKES CONVERGED AFTER   2  ITERATIONS
 ALL LAKES CONVERGED AFTER   2  ITERATIONS
 ALL LAKES CONVERGED AFTER   2  ITERATIONS
 ALL LAKES CONVERGED AFTER   2  ITERATIONS
 ALL LAKES CONVERGED AFTER   2  ITERATIONS
 ALL LAKES CONVERGED AFTER   2  ITERATIONS
 ALL LAKES CONVERGED AFTER   2  ITERATIONS
 ALL LAKES CONVERGED AFTER   2  ITERATIONS
 ALL LAKES CONVERGED AFTER   2  ITERATIONS
 ALL LAKES CONVERGED AFTER   2  ITERATIONS
 ALL LAKES CONVERGED AFTER   2  ITERATIONS
 ALL LAKES CONVERGED AFTER   2  ITERATIONS
 ALL LAKES CONVERGED AFTER   2  ITERATIONS
 ALL LAKES CONVERGED AFTER   2  ITERATIONS
 ALL LAKES CONVERGED AFTER   2  ITERATIONS
 ALL LAKES CONVERGED AFTER   2  ITERATIONS
 ALL LAKES CONVERGED AFTER   2  ITERATIONS
 ALL LAKES CONVERGED AFTER   2  ITERATIONS
 ALL LAKES CONVERGED AFTER   2  ITERATIONS
 ALL LAKES CONVERGED AFTER   2  ITERATIONS
 ALL LAKES CONVERGED AFTER   1  ITERATIONS
 ALL LAKES CONVERGED AFTER   2  ITERATIONS
 ALL LAKES CONVERGED AFTER   1  ITERATIONS
 ALL LAKES CONVERGED AFTER   2  ITERATIONS
 ALL LAKES CONVERGED AFTER   1  ITERATIONS
 ALL LAKES CONVERGED AFTER   1  ITERATIONS
    34 ITERATIONS FOR TIME STEP  73 IN STRESS PERIOD    1

 MAXIMUM HEAD CHANGE FOR EACH ITERATION:

    HEAD CHANGE   HEAD CHANGE   HEAD CHANGE   HEAD CHANGE   HEAD CHANGE
  LAYER,ROW,COL LAYER,ROW,COL LAYER,ROW,COL LAYER,ROW,COL LAYER,ROW,COL
 ----------------------------------------------------------------------
     0.7141E-02    0.7935E-02    0.7591E-02    0.5255E-02    0.7165E-02
  (  3, 10,  9) (  2, 10, 12) (  5, 10,  8) (  3,  8, 10) (  3, 10,  8)
     0.3932E-02    0.3567E-02    0.2941E-02    0.4090E-02    0.2339E-02
  (  2,  7,  7) (  5, 10,  8) (  3,  8, 10) (  3, 10,  8) (  2,  8, 11)
     0.2894E-02    0.1809E-02    0.2080E-02    0.1361E-02    0.1864E-02
  (  3,  8,  8) (  5,  9,  9) (  5, 10,  8) (  3,  8, 10) (  3, 10,  8)
     0.1012E-02    0.9139E-03    0.7553E-03    0.1046E-02    0.6044E-03
  (  2,  7,  7) (  5, 10,  8) (  3,  8, 10) (  3, 10,  8) (  2,  8, 11)
     0.7450E-03    0.4723E-03    0.5332E-03    0.3447E-03    0.4792E-03
  (  2,  7,  7) (  5,  9,  9) (  5, 10,  8) (  2,  7, 11) (  3, 10,  8)
     0.2574E-03    0.2361E-03    0.1961E-03    0.2663E-03    0.1582E-03
  (  2,  7,  7) (  5, 10,  8) (  2,  7, 11) (  3, 10,  8) (  2,  8, 11)
     0.1875E-03    0.1279E-03    0.1448E-03    0.9070E-04
  (  3,  8,  8) (  5,  9,  9) (  5, 10,  8) (  3,  8, 10)


 HEAD/DRAWDOWN PRINTOUT FLAG = 0     TOTAL BUDGET PRINTOUT FLAG = 0
 CELL-BY-CELL FLOW TERM FLAG = 1

 OUTPUT FLAGS FOR ALL LAYERS ARE THE SAME:
   HEAD    DRAWDOWN  HEAD  DRAWDOWN
 PRINTOUT  PRINTOUT  SAVE    SAVE
 ----------------------------------
     0         0       0       0


     0  LAKE CELLS ARE DRY.

 PERIOD     1     TIME STEP    73     TIME STEP LENGTH  6.6635E+01
 PERIOD TIME  2.5977E+03     TOTAL SIMULATION TIME  2.5977E+03


                 HYDROLOGIC BUDGET SUMMARIES FOR SIMULATED LAKES
     (ALL FLUID FLUXES ARE VOLUMES ADDED TO THE LAKE DURING PRESENT TIME STEP)
     -------------------------------------------------------------------------
 LAKE   STAGE     PRECIP       EVAP       RUNOFF
   1   147.91  4.8311E+06  4.2896E+06  0.0000E+00

            GROUND WATER            SURFACE WATER
 LAKE    INFLOW     OUTFLOW      INFLOW     OUTFLOW
   1  1.2725E+06  1.4855E+06  0.0000E+00  0.0000E+00

         WATER    CONNECTED LAKE   UPDATED     TIME-STEP          STAGE CHANGE
 LAKE     USE         INFLUX        VOLUME    SURFACE AREA   TIME STEP  CUMULATIVE
   1   0.0000E+00   0.0000E+00   2.7821E+08    6.2500E+06   5.2314E-02  3.7913E+01
 --------------------------------------------------------------------------------



            CUMULATIVE HYDROLOGIC BUDGET SUMMARIES FOR SIMULATED LAKES
     (ALL FLUID FLUXES ARE SUMS OF VOLUMES ADDED TO THE LAKE SINCE INITIAL TIME)
     ---------------------------------------------------------------------------
 LAKE       PRECIP       EVAP       RUNOFF
   1     1.8833E+08  1.6723E+08  0.0000E+00

            GROUND WATER            SURFACE WATER
 LAKE    INFLOW     OUTFLOW      INFLOW     OUTFLOW
   1  2.3525E+08  1.9313E+07  0.0000E+00  0.0000E+00

         WATER    CONNECTED LAKE
 LAKE     USE         INFLUX
   1   0.0000E+00   0.0000E+00
 --------------------------------------------------------------------------------

 
 SOLVING FOR HEAD 
 ALL LAKES CONVERGED AFTER   2  ITERATIONS
 ALL LAKES CONVERGED AFTER   2  ITERATIONS
 ALL LAKES CONVERGED AFTER   2  ITERATIONS
 ALL LAKES CONVERGED AFTER   2  ITERATIONS
 ALL LAKES CONVERGED AFTER   2  ITERATIONS
 ALL LAKES CONVERGED AFTER   2  ITERATIONS
 ALL LAKES CONVERGED AFTER   2  ITERATIONS
 ALL LAKES CONVERGED AFTER   2  ITERATIONS
 ALL LAKES CONVERGED AFTER   2  ITERATIONS
 ALL LAKES CONVERGED AFTER   2  ITERATIONS
 ALL LAKES CONVERGED AFTER   2  ITERATIONS
 ALL LAKES CONVERGED AFTER   2  ITERATIONS
 ALL LAKES CONVERGED AFTER   2  ITERATIONS
 ALL LAKES CONVERGED AFTER   2  ITERATIONS
 ALL LAKES CONVERGED AFTER   2  ITERATIONS
 ALL LAKES CONVERGED AFTER   2  ITERATIONS
 ALL LAKES CONVERGED AFTER   2  ITERATIONS
 ALL LAKES CONVERGED AFTER   2  ITERATIONS
 ALL LAKES CONVERGED AFTER   2  ITERATIONS
 ALL LAKES CONVERGED AFTER   2  ITERATIONS
 ALL LAKES CONVERGED AFTER   2  ITERATIONS
 ALL LAKES CONVERGED AFTER   2  ITERATIONS
 ALL LAKES CONVERGED AFTER   2  ITERATIONS
 ALL LAKES CONVERGED AFTER   2  ITERATIONS
 ALL LAKES CONVERGED AFTER   2  ITERATIONS
 ALL LAKES CONVERGED AFTER   2  ITERATIONS
 ALL LAKES CONVERGED AFTER   2  ITERATIONS
 ALL LAKES CONVERGED AFTER   2  ITERATIONS
 ALL LAKES CONVERGED AFTER   1  ITERATIONS
 ALL LAKES CONVERGED AFTER   2  ITERATIONS
 ALL LAKES CONVERGED AFTER   1  ITERATIONS
 ALL LAKES CONVERGED AFTER   2  ITERATIONS
 ALL LAKES CONVERGED AFTER   1  ITERATIONS
 ALL LAKES CONVERGED AFTER   1  ITERATIONS
    34 ITERATIONS FOR TIME STEP  74 IN STRESS PERIOD    1

 MAXIMUM HEAD CHANGE FOR EACH ITERATION:

    HEAD CHANGE   HEAD CHANGE   HEAD CHANGE   HEAD CHANGE   HEAD CHANGE
  LAYER,ROW,COL LAYER,ROW,COL LAYER,ROW,COL LAYER,ROW,COL LAYER,ROW,COL
 ----------------------------------------------------------------------
     0.6294E-02    0.7014E-02    0.6695E-02    0.4649E-02    0.6366E-02
  (  3, 10,  9) (  2, 10, 12) (  5, 10,  8) (  3,  8, 10) (  3, 10,  8)
     0.3504E-02    0.3182E-02    0.2634E-02    0.3653E-02    0.2098E-02
  (  2,  7,  7) (  5, 10,  8) (  3,  8, 10) (  3, 10,  8) (  3,  8, 10)
     0.2603E-02    0.1616E-02    0.1867E-02    0.1240E-02    0.1674E-02
  (  3,  8,  8) (  5,  9,  9) (  5, 10,  8) (  3,  8, 10) (  3, 10,  8)
     0.9181E-03    0.8339E-03    0.6937E-03    0.9603E-03    0.5646E-03
  (  2,  7,  7) (  5, 10,  8) (  3,  8, 10) (  3, 10,  8) (  2,  8, 11)
     0.6839E-03    0.4206E-03    0.5017E-03    0.3325E-03    0.4490E-03
  (  3,  8,  8) (  5,  9,  9) (  5, 10,  8) (  3,  8, 10) (  3, 10,  8)
     0.2476E-03    0.2241E-03    0.1837E-03    0.2568E-03    0.1387E-03
  (  2,  7,  7) (  5, 10,  8) (  3,  8, 10) (  3, 10,  8) (  2,  8, 11)
     0.1687E-03    0.1117E-03    0.1263E-03    0.9067E-04
  (  3,  8,  8) (  3, 10, 11) (  5, 10,  8) (  3,  8, 10)


 HEAD/DRAWDOWN PRINTOUT FLAG = 0     TOTAL BUDGET PRINTOUT FLAG = 0
 CELL-BY-CELL FLOW TERM FLAG = 1

 OUTPUT FLAGS FOR ALL LAYERS ARE THE SAME:
   HEAD    DRAWDOWN  HEAD  DRAWDOWN
 PRINTOUT  PRINTOUT  SAVE    SAVE
 ----------------------------------
     0         0       0       0


     0  LAKE CELLS ARE DRY.

 PERIOD     1     TIME STEP    74     TIME STEP LENGTH  6.7968E+01
 PERIOD TIME  2.6657E+03     TOTAL SIMULATION TIME  2.6657E+03


                 HYDROLOGIC BUDGET SUMMARIES FOR SIMULATED LAKES
     (ALL FLUID FLUXES ARE VOLUMES ADDED TO THE LAKE DURING PRESENT TIME STEP)
     -------------------------------------------------------------------------
 LAKE   STAGE     PRECIP       EVAP       RUNOFF
   1   147.96  4.9277E+06  4.3754E+06  0.0000E+00

            GROUND WATER            SURFACE WATER
 LAKE    INFLOW     OUTFLOW      INFLOW     OUTFLOW
   1  1.2789E+06  1.5381E+06  0.0000E+00  0.0000E+00

         WATER    CONNECTED LAKE   UPDATED     TIME-STEP          STAGE CHANGE
 LAKE     USE         INFLUX        VOLUME    SURFACE AREA   TIME STEP  CUMULATIVE
   1   0.0000E+00   0.0000E+00   2.7850E+08    6.2500E+06   4.6609E-02  3.7960E+01
 --------------------------------------------------------------------------------



            CUMULATIVE HYDROLOGIC BUDGET SUMMARIES FOR SIMULATED LAKES
     (ALL FLUID FLUXES ARE SUMS OF VOLUMES ADDED TO THE LAKE SINCE INITIAL TIME)
     ---------------------------------------------------------------------------
 LAKE       PRECIP       EVAP       RUNOFF
   1     1.9326E+08  1.7160E+08  0.0000E+00

            GROUND WATER            SURFACE WATER
 LAKE    INFLOW     OUTFLOW      INFLOW     OUTFLOW
   1  2.3653E+08  2.0851E+07  0.0000E+00  0.0000E+00

         WATER    CONNECTED LAKE
 LAKE     USE         INFLUX
   1   0.0000E+00   0.0000E+00
 --------------------------------------------------------------------------------

 
 SOLVING FOR HEAD 
 ALL LAKES CONVERGED AFTER   2  ITERATIONS
 ALL LAKES CONVERGED AFTER   2  ITERATIONS
 ALL LAKES CONVERGED AFTER   2  ITERATIONS
 ALL LAKES CONVERGED AFTER   2  ITERATIONS
 ALL LAKES CONVERGED AFTER   2  ITERATIONS
 ALL LAKES CONVERGED AFTER   2  ITERATIONS
 ALL LAKES CONVERGED AFTER   2  ITERATIONS
 ALL LAKES CONVERGED AFTER   2  ITERATIONS
 ALL LAKES CONVERGED AFTER   2  ITERATIONS
 ALL LAKES CONVERGED AFTER   2  ITERATIONS
 ALL LAKES CONVERGED AFTER   2  ITERATIONS
 ALL LAKES CONVERGED AFTER   2  ITERATIONS
 ALL LAKES CONVERGED AFTER   2  ITERATIONS
 ALL LAKES CONVERGED AFTER   2  ITERATIONS
 ALL LAKES CONVERGED AFTER   2  ITERATIONS
 ALL LAKES CONVERGED AFTER   2  ITERATIONS
 ALL LAKES CONVERGED AFTER   2  ITERATIONS
 ALL LAKES CONVERGED AFTER   2  ITERATIONS
 ALL LAKES CONVERGED AFTER   2  ITERATIONS
 ALL LAKES CONVERGED AFTER   2  ITERATIONS
 ALL LAKES CONVERGED AFTER   2  ITERATIONS
 ALL LAKES CONVERGED AFTER   2  ITERATIONS
 ALL LAKES CONVERGED AFTER   2  ITERATIONS
 ALL LAKES CONVERGED AFTER   2  ITERATIONS
 ALL LAKES CONVERGED AFTER   2  ITERATIONS
 ALL LAKES CONVERGED AFTER   2  ITERATIONS
 ALL LAKES CONVERGED AFTER   2  ITERATIONS
 ALL LAKES CONVERGED AFTER   2  ITERATIONS
 ALL LAKES CONVERGED AFTER   1  ITERATIONS
 ALL LAKES CONVERGED AFTER   2  ITERATIONS
 ALL LAKES CONVERGED AFTER   1  ITERATIONS
 ALL LAKES CONVERGED AFTER   2  ITERATIONS
 ALL LAKES CONVERGED AFTER   1  ITERATIONS
 ALL LAKES CONVERGED AFTER   1  ITERATIONS
    34 ITERATIONS FOR TIME STEP  75 IN STRESS PERIOD    1

 MAXIMUM HEAD CHANGE FOR EACH ITERATION:

    HEAD CHANGE   HEAD CHANGE   HEAD CHANGE   HEAD CHANGE   HEAD CHANGE
  LAYER,ROW,COL LAYER,ROW,COL LAYER,ROW,COL LAYER,ROW,COL LAYER,ROW,COL
 ----------------------------------------------------------------------
     0.5514E-02    0.6186E-02    0.5900E-02    0.4115E-02    0.5628E-02
  (  3, 10, 10) (  2, 10, 12) (  5, 10,  8) (  3,  8, 10) (  3, 10,  8)
     0.3106E-02    0.2830E-02    0.2348E-02    0.3253E-02    0.1867E-02
  (  2,  7,  7) (  5, 10,  8) (  3,  8, 10) (  3, 10,  8) (  3,  8, 10)
     0.2323E-02    0.1453E-02    0.1697E-02    0.1119E-02    0.1525E-02
  (  3,  8,  8) (  5,  9,  9) (  5, 10,  8) (  3,  8, 10) (  3, 10,  8)
     0.8324E-03    0.7556E-03    0.6329E-03    0.8745E-03    0.4956E-03
  (  2,  7,  7) (  5, 10,  8) (  3,  8, 10) (  3, 10,  8) (  2,  8, 11)
     0.6183E-03    0.3876E-03    0.4469E-03    0.3059E-03    0.4088E-03
  (  3,  8,  8) (  5,  9,  9) (  5, 10,  8) (  2,  9, 11) (  3, 10,  8)
     0.2283E-03    0.2033E-03    0.1722E-03    0.2290E-03    0.1305E-03
  (  2,  7,  7) (  5, 10,  8) (  2,  7,  8) (  5, 10,  8) (  3,  8, 10)
     0.1686E-03    0.1117E-03    0.1261E-03    0.7056E-04
  (  3,  8,  8) (  4,  7,  8) (  5, 10,  8) (  3,  8, 10)


 HEAD/DRAWDOWN PRINTOUT FLAG = 0     TOTAL BUDGET PRINTOUT FLAG = 0
 CELL-BY-CELL FLOW TERM FLAG = 1

 OUTPUT FLAGS FOR ALL LAYERS ARE THE SAME:
   HEAD    DRAWDOWN  HEAD  DRAWDOWN
 PRINTOUT  PRINTOUT  SAVE    SAVE
 ----------------------------------
     0         0       0       0


     0  LAKE CELLS ARE DRY.

 PERIOD     1     TIME STEP    75     TIME STEP LENGTH  6.9327E+01
 PERIOD TIME  2.7350E+03     TOTAL SIMULATION TIME  2.7350E+03


                 HYDROLOGIC BUDGET SUMMARIES FOR SIMULATED LAKES
     (ALL FLUID FLUXES ARE VOLUMES ADDED TO THE LAKE DURING PRESENT TIME STEP)
     -------------------------------------------------------------------------
 LAKE   STAGE     PRECIP       EVAP       RUNOFF
   1   148.00  5.0262E+06  4.4630E+06  0.0000E+00

            GROUND WATER            SURFACE WATER
 LAKE    INFLOW     OUTFLOW      INFLOW     OUTFLOW
   1  1.2874E+06  1.5896E+06  0.0000E+00  0.0000E+00

         WATER    CONNECTED LAKE   UPDATED     TIME-STEP          STAGE CHANGE
 LAKE     USE         INFLUX        VOLUME    SURFACE AREA   TIME STEP  CUMULATIVE
   1   0.0000E+00   0.0000E+00   2.7876E+08    6.2500E+06   4.1523E-02  3.8001E+01
 --------------------------------------------------------------------------------



            CUMULATIVE HYDROLOGIC BUDGET SUMMARIES FOR SIMULATED LAKES
     (ALL FLUID FLUXES ARE SUMS OF VOLUMES ADDED TO THE LAKE SINCE INITIAL TIME)
     ---------------------------------------------------------------------------
 LAKE       PRECIP       EVAP       RUNOFF
   1     1.9829E+08  1.7607E+08  0.0000E+00

            GROUND WATER            SURFACE WATER
 LAKE    INFLOW     OUTFLOW      INFLOW     OUTFLOW
   1  2.3782E+08  2.2440E+07  0.0000E+00  0.0000E+00

         WATER    CONNECTED LAKE
 LAKE     USE         INFLUX
   1   0.0000E+00   0.0000E+00
 --------------------------------------------------------------------------------

 
 SOLVING FOR HEAD 
 ALL LAKES CONVERGED AFTER   2  ITERATIONS
 ALL LAKES CONVERGED AFTER   2  ITERATIONS
 ALL LAKES CONVERGED AFTER   2  ITERATIONS
 ALL LAKES CONVERGED AFTER   2  ITERATIONS
 ALL LAKES CONVERGED AFTER   2  ITERATIONS
 ALL LAKES CONVERGED AFTER   2  ITERATIONS
 ALL LAKES CONVERGED AFTER   2  ITERATIONS
 ALL LAKES CONVERGED AFTER   2  ITERATIONS
 ALL LAKES CONVERGED AFTER   2  ITERATIONS
 ALL LAKES CONVERGED AFTER   2  ITERATIONS
 ALL LAKES CONVERGED AFTER   2  ITERATIONS
 ALL LAKES CONVERGED AFTER   2  ITERATIONS
 ALL LAKES CONVERGED AFTER   2  ITERATIONS
 ALL LAKES CONVERGED AFTER   2  ITERATIONS
 ALL LAKES CONVERGED AFTER   2  ITERATIONS
 ALL LAKES CONVERGED AFTER   2  ITERATIONS
 ALL LAKES CONVERGED AFTER   2  ITERATIONS
 ALL LAKES CONVERGED AFTER   2  ITERATIONS
 ALL LAKES CONVERGED AFTER   2  ITERATIONS
 ALL LAKES CONVERGED AFTER   2  ITERATIONS
 ALL LAKES CONVERGED AFTER   2  ITERATIONS
 ALL LAKES CONVERGED AFTER   2  ITERATIONS
 ALL LAKES CONVERGED AFTER   2  ITERATIONS
 ALL LAKES CONVERGED AFTER   2  ITERATIONS
 ALL LAKES CONVERGED AFTER   2  ITERATIONS
 ALL LAKES CONVERGED AFTER   2  ITERATIONS
 ALL LAKES CONVERGED AFTER   2  ITERATIONS
 ALL LAKES CONVERGED AFTER   2  ITERATIONS
 ALL LAKES CONVERGED AFTER   1  ITERATIONS
 ALL LAKES CONVERGED AFTER   2  ITERATIONS
 ALL LAKES CONVERGED AFTER   1  ITERATIONS
 ALL LAKES CONVERGED AFTER   1  ITERATIONS
    32 ITERATIONS FOR TIME STEP  76 IN STRESS PERIOD    1

 MAXIMUM HEAD CHANGE FOR EACH ITERATION:

    HEAD CHANGE   HEAD CHANGE   HEAD CHANGE   HEAD CHANGE   HEAD CHANGE
  LAYER,ROW,COL LAYER,ROW,COL LAYER,ROW,COL LAYER,ROW,COL LAYER,ROW,COL
 ----------------------------------------------------------------------
     0.4836E-02    0.5444E-02    0.5197E-02    0.3641E-02    0.4979E-02
  (  3,  8,  8) (  2, 10, 12) (  5, 10,  8) (  3,  8, 10) (  3, 10,  8)
     0.2754E-02    0.2503E-02    0.2092E-02    0.2901E-02    0.1676E-02
  (  2,  7,  7) (  5, 10,  8) (  3,  8, 10) (  3, 10,  8) (  3,  8, 10)
     0.2079E-02    0.1312E-02    0.1505E-02    0.9984E-03    0.1366E-02
  (  3,  8,  8) (  5,  9,  9) (  5, 10,  8) (  3,  8, 10) (  3, 10,  8)
     0.7631E-03    0.6976E-03    0.5711E-03    0.7990E-03    0.4557E-03
  (  2,  7,  7) (  5, 10,  8) (  3,  8, 10) (  3, 10,  8) (  2,  8, 11)
     0.5622E-03    0.3549E-03    0.4132E-03    0.2721E-03    0.3687E-03
  (  3,  8,  8) (  5,  9,  9) (  5, 10,  8) (  3,  8, 10) (  3, 10,  8)
     0.2010E-03    0.1921E-03    0.1692E-03    0.2281E-03    0.1204E-03
  (  2,  7,  7) (  5,  9,  7) (  2,  9, 11) (  3, 10,  8) (  3,  8, 10)
     0.1583E-03    0.9655E-04
  (  2,  7,  7) (  5,  9,  9)


 HEAD/DRAWDOWN PRINTOUT FLAG = 0     TOTAL BUDGET PRINTOUT FLAG = 0
 CELL-BY-CELL FLOW TERM FLAG = 1

 OUTPUT FLAGS FOR ALL LAYERS ARE THE SAME:
   HEAD    DRAWDOWN  HEAD  DRAWDOWN
 PRINTOUT  PRINTOUT  SAVE    SAVE
 ----------------------------------
     0         0       0       0


     0  LAKE CELLS ARE DRY.

 PERIOD     1     TIME STEP    76     TIME STEP LENGTH  7.0714E+01
 PERIOD TIME  2.8057E+03     TOTAL SIMULATION TIME  2.8057E+03


                 HYDROLOGIC BUDGET SUMMARIES FOR SIMULATED LAKES
     (ALL FLUID FLUXES ARE VOLUMES ADDED TO THE LAKE DURING PRESENT TIME STEP)
     -------------------------------------------------------------------------
 LAKE   STAGE     PRECIP       EVAP       RUNOFF
   1   148.04  5.1268E+06  4.5522E+06  0.0000E+00

            GROUND WATER            SURFACE WATER
 LAKE    INFLOW     OUTFLOW      INFLOW     OUTFLOW
   1  1.2983E+06  1.6395E+06  0.0000E+00  0.0000E+00

         WATER    CONNECTED LAKE   UPDATED     TIME-STEP          STAGE CHANGE
 LAKE     USE         INFLUX        VOLUME    SURFACE AREA   TIME STEP  CUMULATIVE
   1   0.0000E+00   0.0000E+00   2.7899E+08    6.2500E+06   3.6786E-02  3.8038E+01
 --------------------------------------------------------------------------------



            CUMULATIVE HYDROLOGIC BUDGET SUMMARIES FOR SIMULATED LAKES
     (ALL FLUID FLUXES ARE SUMS OF VOLUMES ADDED TO THE LAKE SINCE INITIAL TIME)
     ---------------------------------------------------------------------------
 LAKE       PRECIP       EVAP       RUNOFF
   1     2.0342E+08  1.8062E+08  0.0000E+00

            GROUND WATER            SURFACE WATER
 LAKE    INFLOW     OUTFLOW      INFLOW     OUTFLOW
   1  2.3912E+08  2.4080E+07  0.0000E+00  0.0000E+00

         WATER    CONNECTED LAKE
 LAKE     USE         INFLUX
   1   0.0000E+00   0.0000E+00
 --------------------------------------------------------------------------------

 
 SOLVING FOR HEAD 
 ALL LAKES CONVERGED AFTER   2  ITERATIONS
 ALL LAKES CONVERGED AFTER   2  ITERATIONS
 ALL LAKES CONVERGED AFTER   2  ITERATIONS
 ALL LAKES CONVERGED AFTER   2  ITERATIONS
 ALL LAKES CONVERGED AFTER   2  ITERATIONS
 ALL LAKES CONVERGED AFTER   2  ITERATIONS
 ALL LAKES CONVERGED AFTER   2  ITERATIONS
 ALL LAKES CONVERGED AFTER   2  ITERATIONS
 ALL LAKES CONVERGED AFTER   2  ITERATIONS
 ALL LAKES CONVERGED AFTER   2  ITERATIONS
 ALL LAKES CONVERGED AFTER   2  ITERATIONS
 ALL LAKES CONVERGED AFTER   2  ITERATIONS
 ALL LAKES CONVERGED AFTER   2  ITERATIONS
 ALL LAKES CONVERGED AFTER   2  ITERATIONS
 ALL LAKES CONVERGED AFTER   2  ITERATIONS
 ALL LAKES CONVERGED AFTER   2  ITERATIONS
 ALL LAKES CONVERGED AFTER   2  ITERATIONS
 ALL LAKES CONVERGED AFTER   2  ITERATIONS
 ALL LAKES CONVERGED AFTER   2  ITERATIONS
 ALL LAKES CONVERGED AFTER   2  ITERATIONS
 ALL LAKES CONVERGED AFTER   2  ITERATIONS
 ALL LAKES CONVERGED AFTER   2  ITERATIONS
 ALL LAKES CONVERGED AFTER   2  ITERATIONS
 ALL LAKES CONVERGED AFTER   2  ITERATIONS
 ALL LAKES CONVERGED AFTER   1  ITERATIONS
 ALL LAKES CONVERGED AFTER   2  ITERATIONS
 ALL LAKES CONVERGED AFTER   2  ITERATIONS
 ALL LAKES CONVERGED AFTER   2  ITERATIONS
 ALL LAKES CONVERGED AFTER   1  ITERATIONS
 ALL LAKES CONVERGED AFTER   2  ITERATIONS
 ALL LAKES CONVERGED AFTER   1  ITERATIONS
 ALL LAKES CONVERGED AFTER   1  ITERATIONS
    32 ITERATIONS FOR TIME STEP  77 IN STRESS PERIOD    1

 MAXIMUM HEAD CHANGE FOR EACH ITERATION:

    HEAD CHANGE   HEAD CHANGE   HEAD CHANGE   HEAD CHANGE   HEAD CHANGE
  LAYER,ROW,COL LAYER,ROW,COL LAYER,ROW,COL LAYER,ROW,COL LAYER,ROW,COL
 ----------------------------------------------------------------------
     0.4244E-02    0.4782E-02    0.4563E-02    0.3202E-02    0.4391E-02
  (  3, 10,  8) (  2, 10, 12) (  5, 10,  8) (  2,  7, 10) (  3, 10,  8)
     0.2441E-02    0.2232E-02    0.1848E-02    0.2579E-02    0.1496E-02
  (  2,  7,  7) (  5, 10,  8) (  3,  8, 10) (  3, 10,  8) (  2,  8, 11)
     0.1855E-02    0.1162E-02    0.1355E-02    0.9073E-03    0.1226E-02
  (  3,  8,  8) (  5,  9,  9) (  5, 10,  8) (  3,  8, 10) (  3, 10,  8)
     0.6971E-03    0.6303E-03    0.5209E-03    0.7129E-03    0.4261E-03
  (  2,  7,  7) (  5, 10,  8) (  3,  8, 10) (  3, 10,  8) (  2,  8, 11)
     0.5221E-03    0.3227E-03    0.3799E-03    0.2619E-03    0.3482E-03
  (  2,  7,  7) (  5,  9,  9) (  5, 10,  8) (  3,  8, 10) (  3, 10,  8)
     0.1910E-03    0.1687E-03    0.1427E-03    0.2003E-03    0.1204E-03
  (  2,  7,  7) (  5, 10,  8) (  3,  8, 10) (  5, 10,  8) (  3,  8, 10)
     0.1405E-03    0.9569E-04
  (  3,  8,  8) (  5,  9,  9)


 HEAD/DRAWDOWN PRINTOUT FLAG = 0     TOTAL BUDGET PRINTOUT FLAG = 0
 CELL-BY-CELL FLOW TERM FLAG = 1

 OUTPUT FLAGS FOR ALL LAYERS ARE THE SAME:
   HEAD    DRAWDOWN  HEAD  DRAWDOWN
 PRINTOUT  PRINTOUT  SAVE    SAVE
 ----------------------------------
     0         0       0       0


     0  LAKE CELLS ARE DRY.

 PERIOD     1     TIME STEP    77     TIME STEP LENGTH  7.2128E+01
 PERIOD TIME  2.8779E+03     TOTAL SIMULATION TIME  2.8779E+03


                 HYDROLOGIC BUDGET SUMMARIES FOR SIMULATED LAKES
     (ALL FLUID FLUXES ARE VOLUMES ADDED TO THE LAKE DURING PRESENT TIME STEP)
     -------------------------------------------------------------------------
 LAKE   STAGE     PRECIP       EVAP       RUNOFF
   1   148.07  5.2293E+06  4.6433E+06  0.0000E+00

            GROUND WATER            SURFACE WATER
 LAKE    INFLOW     OUTFLOW      INFLOW     OUTFLOW
   1  1.3102E+06  1.6892E+06  0.0000E+00  0.0000E+00

         WATER    CONNECTED LAKE   UPDATED     TIME-STEP          STAGE CHANGE
 LAKE     USE         INFLUX        VOLUME    SURFACE AREA   TIME STEP  CUMULATIVE
   1   0.0000E+00   0.0000E+00   2.7919E+08    6.2500E+06   3.2642E-02  3.8071E+01
 --------------------------------------------------------------------------------



            CUMULATIVE HYDROLOGIC BUDGET SUMMARIES FOR SIMULATED LAKES
     (ALL FLUID FLUXES ARE SUMS OF VOLUMES ADDED TO THE LAKE SINCE INITIAL TIME)
     ---------------------------------------------------------------------------
 LAKE       PRECIP       EVAP       RUNOFF
   1     2.0864E+08  1.8526E+08  0.0000E+00

            GROUND WATER            SURFACE WATER
 LAKE    INFLOW     OUTFLOW      INFLOW     OUTFLOW
   1  2.4043E+08  2.5769E+07  0.0000E+00  0.0000E+00

         WATER    CONNECTED LAKE
 LAKE     USE         INFLUX
   1   0.0000E+00   0.0000E+00
 --------------------------------------------------------------------------------

 
 SOLVING FOR HEAD 
 ALL LAKES CONVERGED AFTER   2  ITERATIONS
 ALL LAKES CONVERGED AFTER   2  ITERATIONS
 ALL LAKES CONVERGED AFTER   2  ITERATIONS
 ALL LAKES CONVERGED AFTER   2  ITERATIONS
 ALL LAKES CONVERGED AFTER   2  ITERATIONS
 ALL LAKES CONVERGED AFTER   2  ITERATIONS
 ALL LAKES CONVERGED AFTER   2  ITERATIONS
 ALL LAKES CONVERGED AFTER   2  ITERATIONS
 ALL LAKES CONVERGED AFTER   2  ITERATIONS
 ALL LAKES CONVERGED AFTER   2  ITERATIONS
 ALL LAKES CONVERGED AFTER   2  ITERATIONS
 ALL LAKES CONVERGED AFTER   2  ITERATIONS
 ALL LAKES CONVERGED AFTER   2  ITERATIONS
 ALL LAKES CONVERGED AFTER   2  ITERATIONS
 ALL LAKES CONVERGED AFTER   2  ITERATIONS
 ALL LAKES CONVERGED AFTER   2  ITERATIONS
 ALL LAKES CONVERGED AFTER   2  ITERATIONS
 ALL LAKES CONVERGED AFTER   2  ITERATIONS
 ALL LAKES CONVERGED AFTER   2  ITERATIONS
 ALL LAKES CONVERGED AFTER   2  ITERATIONS
 ALL LAKES CONVERGED AFTER   2  ITERATIONS
 ALL LAKES CONVERGED AFTER   2  ITERATIONS
 ALL LAKES CONVERGED AFTER   2  ITERATIONS
 ALL LAKES CONVERGED AFTER   2  ITERATIONS
 ALL LAKES CONVERGED AFTER   1  ITERATIONS
 ALL LAKES CONVERGED AFTER   2  ITERATIONS
 ALL LAKES CONVERGED AFTER   2  ITERATIONS
 ALL LAKES CONVERGED AFTER   2  ITERATIONS
 ALL LAKES CONVERGED AFTER   1  ITERATIONS
 ALL LAKES CONVERGED AFTER   2  ITERATIONS
 ALL LAKES CONVERGED AFTER   1  ITERATIONS
 ALL LAKES CONVERGED AFTER   1  ITERATIONS
    32 ITERATIONS FOR TIME STEP  78 IN STRESS PERIOD    1

 MAXIMUM HEAD CHANGE FOR EACH ITERATION:

    HEAD CHANGE   HEAD CHANGE   HEAD CHANGE   HEAD CHANGE   HEAD CHANGE
  LAYER,ROW,COL LAYER,ROW,COL LAYER,ROW,COL LAYER,ROW,COL LAYER,ROW,COL
 ----------------------------------------------------------------------
     0.3694E-02    0.4184E-02    0.3980E-02    0.2813E-02    0.3852E-02
  (  3, 10,  8) (  2, 10, 12) (  5, 10,  8) (  2,  7, 10) (  3, 10,  8)
     0.2147E-02    0.1962E-02    0.1643E-02    0.2283E-02    0.1325E-02
  (  2,  7,  7) (  5, 10,  8) (  3,  8, 10) (  3, 10,  8) (  3,  8, 10)
     0.1649E-02    0.1043E-02    0.1220E-02    0.7999E-03    0.1107E-02
  (  3,  8,  8) (  5,  9,  9) (  5, 10,  8) (  2,  8, 11) (  3, 10,  8)
     0.6210E-03    0.5626E-03    0.4599E-03    0.6379E-03    0.3813E-03
  (  2,  7,  7) (  5, 10,  8) (  2,  9, 11) (  3, 10,  8) (  3,  8, 10)
     0.4681E-03    0.2908E-03    0.3554E-03    0.2318E-03    0.3120E-03
  (  3,  8,  8) (  5,  9,  9) (  5, 10,  8) (  3,  8, 10) (  3, 10,  9)
     0.1724E-03    0.1580E-03    0.1391E-03    0.1803E-03    0.1101E-03
  (  2,  7,  7) (  5, 10,  8) (  2,  9, 11) (  3, 10,  8) (  3,  8, 10)
     0.1311E-03    0.8125E-04
  (  3,  8,  8) (  3, 10, 11)


 HEAD/DRAWDOWN PRINTOUT FLAG = 0     TOTAL BUDGET PRINTOUT FLAG = 0
 CELL-BY-CELL FLOW TERM FLAG = 1

 OUTPUT FLAGS FOR ALL LAYERS ARE THE SAME:
   HEAD    DRAWDOWN  HEAD  DRAWDOWN
 PRINTOUT  PRINTOUT  SAVE    SAVE
 ----------------------------------
     0         0       0       0


     0  LAKE CELLS ARE DRY.

 PERIOD     1     TIME STEP    78     TIME STEP LENGTH  7.3571E+01
 PERIOD TIME  2.9514E+03     TOTAL SIMULATION TIME  2.9514E+03


                 HYDROLOGIC BUDGET SUMMARIES FOR SIMULATED LAKES
     (ALL FLUID FLUXES ARE VOLUMES ADDED TO THE LAKE DURING PRESENT TIME STEP)
     -------------------------------------------------------------------------
 LAKE   STAGE     PRECIP       EVAP       RUNOFF
   1   148.10  5.3339E+06  4.7361E+06  0.0000E+00

            GROUND WATER            SURFACE WATER
 LAKE    INFLOW     OUTFLOW      INFLOW     OUTFLOW
   1  1.3237E+06  1.7383E+06  0.0000E+00  0.0000E+00

         WATER    CONNECTED LAKE   UPDATED     TIME-STEP          STAGE CHANGE
 LAKE     USE         INFLUX        VOLUME    SURFACE AREA   TIME STEP  CUMULATIVE
   1   0.0000E+00   0.0000E+00   2.7937E+08    6.2500E+06   2.8816E-02  3.8100E+01
 --------------------------------------------------------------------------------



            CUMULATIVE HYDROLOGIC BUDGET SUMMARIES FOR SIMULATED LAKES
     (ALL FLUID FLUXES ARE SUMS OF VOLUMES ADDED TO THE LAKE SINCE INITIAL TIME)
     ---------------------------------------------------------------------------
 LAKE       PRECIP       EVAP       RUNOFF
   1     2.1398E+08  1.9000E+08  0.0000E+00

            GROUND WATER            SURFACE WATER
 LAKE    INFLOW     OUTFLOW      INFLOW     OUTFLOW
   1  2.4175E+08  2.7507E+07  0.0000E+00  0.0000E+00

         WATER    CONNECTED LAKE
 LAKE     USE         INFLUX
   1   0.0000E+00   0.0000E+00
 --------------------------------------------------------------------------------

 
 SOLVING FOR HEAD 
 ALL LAKES CONVERGED AFTER   2  ITERATIONS
 ALL LAKES CONVERGED AFTER   2  ITERATIONS
 ALL LAKES CONVERGED AFTER   2  ITERATIONS
 ALL LAKES CONVERGED AFTER   2  ITERATIONS
 ALL LAKES CONVERGED AFTER   2  ITERATIONS
 ALL LAKES CONVERGED AFTER   2  ITERATIONS
 ALL LAKES CONVERGED AFTER   2  ITERATIONS
 ALL LAKES CONVERGED AFTER   2  ITERATIONS
 ALL LAKES CONVERGED AFTER   2  ITERATIONS
 ALL LAKES CONVERGED AFTER   2  ITERATIONS
 ALL LAKES CONVERGED AFTER   2  ITERATIONS
 ALL LAKES CONVERGED AFTER   2  ITERATIONS
 ALL LAKES CONVERGED AFTER   2  ITERATIONS
 ALL LAKES CONVERGED AFTER   2  ITERATIONS
 ALL LAKES CONVERGED AFTER   2  ITERATIONS
 ALL LAKES CONVERGED AFTER   2  ITERATIONS
 ALL LAKES CONVERGED AFTER   2  ITERATIONS
 ALL LAKES CONVERGED AFTER   2  ITERATIONS
 ALL LAKES CONVERGED AFTER   2  ITERATIONS
 ALL LAKES CONVERGED AFTER   2  ITERATIONS
 ALL LAKES CONVERGED AFTER   2  ITERATIONS
 ALL LAKES CONVERGED AFTER   2  ITERATIONS
 ALL LAKES CONVERGED AFTER   2  ITERATIONS
 ALL LAKES CONVERGED AFTER   2  ITERATIONS
 ALL LAKES CONVERGED AFTER   1  ITERATIONS
 ALL LAKES CONVERGED AFTER   2  ITERATIONS
 ALL LAKES CONVERGED AFTER   2  ITERATIONS
 ALL LAKES CONVERGED AFTER   2  ITERATIONS
 ALL LAKES CONVERGED AFTER   1  ITERATIONS
 ALL LAKES CONVERGED AFTER   1  ITERATIONS
 ALL LAKES CONVERGED AFTER   1  ITERATIONS
 ALL LAKES CONVERGED AFTER   1  ITERATIONS
    32 ITERATIONS FOR TIME STEP  79 IN STRESS PERIOD    1

 MAXIMUM HEAD CHANGE FOR EACH ITERATION:

    HEAD CHANGE   HEAD CHANGE   HEAD CHANGE   HEAD CHANGE   HEAD CHANGE
  LAYER,ROW,COL LAYER,ROW,COL LAYER,ROW,COL LAYER,ROW,COL LAYER,ROW,COL
 ----------------------------------------------------------------------
     0.3213E-02    0.3654E-02    0.3474E-02    0.2451E-02    0.3372E-02
  (  3, 10,  8) (  2, 10, 12) (  5, 10,  8) (  3,  8, 10) (  3, 10,  8)
     0.1881E-02    0.1724E-02    0.1439E-02    0.2017E-02    0.1179E-02
  (  2,  7,  7) (  5, 10,  8) (  3,  8, 10) (  3, 10,  8) (  2,  8, 11)
     0.1461E-02    0.9150E-03    0.1075E-02    0.7259E-03    0.9871E-03
  (  3,  8,  8) (  5,  9,  9) (  5, 10,  8) (  3,  8, 10) (  3, 10,  8)
     0.5458E-03    0.5057E-03    0.4186E-03    0.5906E-03    0.3469E-03
  (  2,  7,  7) (  5, 10,  8) (  3,  8, 10) (  3, 10,  8) (  2,  8, 11)
     0.4214E-03    0.2740E-03    0.3160E-03    0.2116E-03    0.2789E-03
  (  3,  8,  8) (  3, 10, 11) (  5, 10,  8) (  3,  8, 10) (  3, 10,  8)
     0.1574E-03    0.1469E-03    0.1295E-03    0.1718E-03    0.1102E-03
  (  3,  8,  9) (  5,  8, 11) (  2,  9, 11) (  5, 10,  8) (  3,  8, 10)
     0.1311E-03    0.8102E-04
  (  3,  8,  8) (  3, 10, 11)


 HEAD/DRAWDOWN PRINTOUT FLAG = 0     TOTAL BUDGET PRINTOUT FLAG = 0
 CELL-BY-CELL FLOW TERM FLAG = 1

 OUTPUT FLAGS FOR ALL LAYERS ARE THE SAME:
   HEAD    DRAWDOWN  HEAD  DRAWDOWN
 PRINTOUT  PRINTOUT  SAVE    SAVE
 ----------------------------------
     0         0       0       0


     0  LAKE CELLS ARE DRY.

 PERIOD     1     TIME STEP    79     TIME STEP LENGTH  7.5042E+01
 PERIOD TIME  3.0265E+03     TOTAL SIMULATION TIME  3.0265E+03


                 HYDROLOGIC BUDGET SUMMARIES FOR SIMULATED LAKES
     (ALL FLUID FLUXES ARE VOLUMES ADDED TO THE LAKE DURING PRESENT TIME STEP)
     -------------------------------------------------------------------------
 LAKE   STAGE     PRECIP       EVAP       RUNOFF
   1   148.13  5.4406E+06  4.8308E+06  0.0000E+00

            GROUND WATER            SURFACE WATER
 LAKE    INFLOW     OUTFLOW      INFLOW     OUTFLOW
   1  1.3386E+06  1.7868E+06  0.0000E+00  0.0000E+00

         WATER    CONNECTED LAKE   UPDATED     TIME-STEP          STAGE CHANGE
 LAKE     USE         INFLUX        VOLUME    SURFACE AREA   TIME STEP  CUMULATIVE
   1   0.0000E+00   0.0000E+00   2.7953E+08    6.2500E+06   2.5371E-02  3.8125E+01
 --------------------------------------------------------------------------------



            CUMULATIVE HYDROLOGIC BUDGET SUMMARIES FOR SIMULATED LAKES
     (ALL FLUID FLUXES ARE SUMS OF VOLUMES ADDED TO THE LAKE SINCE INITIAL TIME)
     ---------------------------------------------------------------------------
 LAKE       PRECIP       EVAP       RUNOFF
   1     2.1942E+08  1.9483E+08  0.0000E+00

            GROUND WATER            SURFACE WATER
 LAKE    INFLOW     OUTFLOW      INFLOW     OUTFLOW
   1  2.4309E+08  2.9294E+07  0.0000E+00  0.0000E+00

         WATER    CONNECTED LAKE
 LAKE     USE         INFLUX
   1   0.0000E+00   0.0000E+00
 --------------------------------------------------------------------------------

 
 SOLVING FOR HEAD 
 ALL LAKES CONVERGED AFTER   2  ITERATIONS
 ALL LAKES CONVERGED AFTER   2  ITERATIONS
 ALL LAKES CONVERGED AFTER   2  ITERATIONS
 ALL LAKES CONVERGED AFTER   2  ITERATIONS
 ALL LAKES CONVERGED AFTER   2  ITERATIONS
 ALL LAKES CONVERGED AFTER   2  ITERATIONS
 ALL LAKES CONVERGED AFTER   2  ITERATIONS
 ALL LAKES CONVERGED AFTER   2  ITERATIONS
 ALL LAKES CONVERGED AFTER   2  ITERATIONS
 ALL LAKES CONVERGED AFTER   2  ITERATIONS
 ALL LAKES CONVERGED AFTER   2  ITERATIONS
 ALL LAKES CONVERGED AFTER   2  ITERATIONS
 ALL LAKES CONVERGED AFTER   2  ITERATIONS
 ALL LAKES CONVERGED AFTER   2  ITERATIONS
 ALL LAKES CONVERGED AFTER   2  ITERATIONS
 ALL LAKES CONVERGED AFTER   2  ITERATIONS
 ALL LAKES CONVERGED AFTER   2  ITERATIONS
 ALL LAKES CONVERGED AFTER   2  ITERATIONS
 ALL LAKES CONVERGED AFTER   2  ITERATIONS
 ALL LAKES CONVERGED AFTER   2  ITERATIONS
 ALL LAKES CONVERGED AFTER   2  ITERATIONS
 ALL LAKES CONVERGED AFTER   2  ITERATIONS
 ALL LAKES CONVERGED AFTER   2  ITERATIONS
 ALL LAKES CONVERGED AFTER   2  ITERATIONS
 ALL LAKES CONVERGED AFTER   1  ITERATIONS
 ALL LAKES CONVERGED AFTER   2  ITERATIONS
 ALL LAKES CONVERGED AFTER   2  ITERATIONS
 ALL LAKES CONVERGED AFTER   2  ITERATIONS
 ALL LAKES CONVERGED AFTER   1  ITERATIONS
 ALL LAKES CONVERGED AFTER   1  ITERATIONS
    30 ITERATIONS FOR TIME STEP  80 IN STRESS PERIOD    1

 MAXIMUM HEAD CHANGE FOR EACH ITERATION:

    HEAD CHANGE   HEAD CHANGE   HEAD CHANGE   HEAD CHANGE   HEAD CHANGE
  LAYER,ROW,COL LAYER,ROW,COL LAYER,ROW,COL LAYER,ROW,COL LAYER,ROW,COL
 ----------------------------------------------------------------------
     0.2776E-02    0.3179E-02    0.3034E-02    0.2149E-02    0.2944E-02
  (  3, 10,  8) (  2, 10, 12) (  5, 10,  8) (  3,  8, 10) (  3, 10,  8)
     0.1654E-02    0.1530E-02    0.1266E-02    0.1770E-02    0.1041E-02
  (  2,  7,  7) (  5, 10,  8) (  3,  8, 10) (  3, 10,  8) (  2,  8, 11)
     0.1292E-02    0.8173E-03    0.9528E-03    0.6352E-03    0.8677E-03
  (  3,  8,  8) (  5,  9,  9) (  5, 10,  8) (  3,  8, 10) (  3, 10,  8)
     0.4877E-03    0.4400E-03    0.3870E-03    0.5310E-03    0.3071E-03
  (  2,  7,  7) (  5, 10,  8) (  3,  8, 10) (  3, 10,  8) (  2,  8, 11)
     0.3828E-03    0.2462E-03    0.2856E-03    0.1814E-03    0.2593E-03
  (  2,  7,  7) (  5,  9,  9) (  5, 10,  8) (  3,  8, 10) (  3, 10,  8)
     0.1462E-03    0.1423E-03    0.1122E-03    0.1531E-03    0.9032E-04
  (  3,  9,  8) (  5, 10,  9) (  3,  8, 10) (  3, 10,  8) (  3,  8, 10)


 HEAD/DRAWDOWN PRINTOUT FLAG = 1     TOTAL BUDGET PRINTOUT FLAG = 1
 CELL-BY-CELL FLOW TERM FLAG = 1

 OUTPUT FLAGS FOR EACH LAYER:
          HEAD    DRAWDOWN  HEAD  DRAWDOWN
 LAYER  PRINTOUT  PRINTOUT  SAVE    SAVE
 -----------------------------------------
    1       0         0       0       0
    2       0         0       0       0
    3       0         0       0       0
    4       0         0       0       0
    5       1         0       0       0


     0  LAKE CELLS ARE DRY.

 PERIOD     1     TIME STEP    80     TIME STEP LENGTH  7.6543E+01
 PERIOD TIME  3.1030E+03     TOTAL SIMULATION TIME  3.1030E+03


                 HYDROLOGIC BUDGET SUMMARIES FOR SIMULATED LAKES
     (ALL FLUID FLUXES ARE VOLUMES ADDED TO THE LAKE DURING PRESENT TIME STEP)
     -------------------------------------------------------------------------
 LAKE   STAGE     PRECIP       EVAP       RUNOFF
   1   148.15  5.5494E+06  4.9275E+06  0.0000E+00

            GROUND WATER            SURFACE WATER
 LAKE    INFLOW     OUTFLOW      INFLOW     OUTFLOW
   1  1.3540E+06  1.8356E+06  0.0000E+00  0.0000E+00

         WATER    CONNECTED LAKE   UPDATED     TIME-STEP          STAGE CHANGE
 LAKE     USE         INFLUX        VOLUME    SURFACE AREA   TIME STEP  CUMULATIVE
   1   0.0000E+00   0.0000E+00   2.7967E+08    6.2500E+06   2.2205E-02  3.8147E+01
 --------------------------------------------------------------------------------



            CUMULATIVE HYDROLOGIC BUDGET SUMMARIES FOR SIMULATED LAKES
     (ALL FLUID FLUXES ARE SUMS OF VOLUMES ADDED TO THE LAKE SINCE INITIAL TIME)
     ---------------------------------------------------------------------------
 LAKE       PRECIP       EVAP       RUNOFF
   1     2.2497E+08  1.9976E+08  0.0000E+00

            GROUND WATER            SURFACE WATER
 LAKE    INFLOW     OUTFLOW      INFLOW     OUTFLOW
   1  2.4445E+08  3.1130E+07  0.0000E+00  0.0000E+00

         WATER    CONNECTED LAKE
 LAKE     USE         INFLUX
   1   0.0000E+00   0.0000E+00
 --------------------------------------------------------------------------------

1
              HEAD IN LAYER   5 AT END OF TIME STEP  80 IN STRESS PERIOD    1
  ---------------------------------------------------------------------------

          1      2      3      4      5      6      7      8      9     10
 .........................................................................
   1   160.0  158.9  157.3  155.8  154.2  152.7  151.5  150.8  150.0  149.2
   2   160.0  158.6  156.7  155.1  153.4  151.9  150.7  149.9  149.1  148.4
   3   160.0  158.4  156.3  154.5  152.8  151.1  150.0  149.2  148.4  147.6
   4   160.0  158.3  156.1  154.1  152.4  150.7  149.6  148.8  148.0  147.3
   5   160.0  158.2  155.9  154.0  152.2  150.5  149.3  148.6  147.9  147.2
   6   160.0  158.2  155.9  153.9  152.0  150.2  149.0  148.4  147.9  147.4
   7   160.0  158.2  155.8  153.8  151.9  150.0  148.2  148.2  148.1  148.1
   8   160.0  158.2  155.8  153.8  151.9  149.9  148.2  148.1  148.1  148.1
   9   160.0  158.2  155.8  153.8  151.9  149.9  148.2  148.1  148.1  148.1
  10   160.0  158.2  155.8  153.8  151.9  149.9  148.2  148.1  148.1  148.1
  11   160.0  158.2  155.8  153.8  151.9  150.0  148.2  148.2  148.1  148.1
  12   160.0  158.2  155.9  153.9  152.0  150.2  149.0  148.4  147.9  147.4
  13   160.0  158.2  155.9  154.0  152.2  150.5  149.3  148.6  147.9  147.2
  14   160.0  158.3  156.1  154.1  152.4  150.7  149.6  148.8  148.0  147.3
  15   160.0  158.4  156.3  154.5  152.8  151.1  150.0  149.2  148.4  147.6
  16   160.0  158.6  156.7  155.1  153.4  151.9  150.7  149.9  149.1  148.4
  17   160.0  158.9  157.3  155.8  154.2  152.7  151.5  150.8  150.0  149.2
1
              HEAD IN LAYER   5 AT END OF TIME STEP  80 IN STRESS PERIOD    1
  ---------------------------------------------------------------------------

         11     12     13     14     15     16     17
 ....................................................
   1   148.5  147.3  145.8  144.2  142.7  141.1  140.0
   2   147.6  146.4  144.9  143.4  141.9  140.6  140.0
   3   146.9  145.7  144.2  142.7  141.4  140.3  140.0
   4   146.5  145.4  143.8  142.4  141.1  140.2  140.0
   5   146.4  145.3  143.7  142.3  141.0  140.1  140.0
   6   146.8  145.5  143.8  142.2  141.0  140.1  140.0
   7   148.0  145.8  143.8  142.2  141.0  140.1  140.0
   8   148.1  145.9  143.9  142.3  141.0  140.1  140.0
   9   148.1  145.9  143.9  142.3  141.0  140.1  140.0
  10   148.1  145.9  143.9  142.3  141.0  140.1  140.0
  11   148.0  145.8  143.8  142.2  141.0  140.1  140.0
  12   146.8  145.5  143.8  142.2  141.0  140.1  140.0
  13   146.4  145.3  143.7  142.3  141.0  140.1  140.0
  14   146.5  145.4  143.8  142.4  141.1  140.2  140.0
  15   146.9  145.7  144.2  142.7  141.4  140.3  140.0
  16   147.6  146.4  144.9  143.4  141.9  140.6  140.0
  17   148.5  147.3  145.8  144.2  142.7  141.1  140.0
1
  VOLUMETRIC BUDGET FOR ENTIRE MODEL AT END OF TIME STEP 80 IN STRESS PERIOD   1
  ------------------------------------------------------------------------------

     CUMULATIVE VOLUMES      L**3       RATES FOR THIS TIME STEP      L**3/T
     ------------------                 ------------------------

           IN:                                      IN:
           ---                                      ---
             STORAGE =       31346.7051               STORAGE =           0.0000
       CONSTANT HEAD =   973935744.0000         CONSTANT HEAD =      167211.7656
                  ET =           0.0000                    ET =           0.0000
            RECHARGE =  5399238656.0000              RECHARGE =     1740000.0000
     SPECIFIED FLOWS =           0.0000       SPECIFIED FLOWS =           0.0000
       LAKE  SEEPAGE =    31129776.0000         LAKE  SEEPAGE =       23980.7754

            TOTAL IN =  6404335616.0000              TOTAL IN =     1931192.5000

          OUT:                                     OUT:
          ----                                     ----
             STORAGE =  1011165632.0000               STORAGE =        1145.3317
       CONSTANT HEAD =    20431450.0000         CONSTANT HEAD =        9389.1846
                  ET =  5128251904.0000                    ET =     1902930.5000
            RECHARGE =           0.0000              RECHARGE =           0.0000
     SPECIFIED FLOWS =           0.0000       SPECIFIED FLOWS =           0.0000
       LAKE  SEEPAGE =   244445168.0000         LAKE  SEEPAGE =       17689.8672

           TOTAL OUT =  6404294144.0000             TOTAL OUT =     1931154.8750

            IN - OUT =       41472.0000              IN - OUT =          37.6250

 PERCENT DISCREPANCY =           0.00     PERCENT DISCREPANCY =           0.00






          TIME SUMMARY AT END OF TIME STEP  80 IN STRESS PERIOD    1
                    SECONDS     MINUTES      HOURS       DAYS        YEARS
                    -----------------------------------------------------------
   TIME STEP LENGTH 6.61332E+06 1.10222E+05  1837.0      76.543     0.20956    
 STRESS PERIOD TIME 2.68100E+08 4.46834E+06  74472.      3103.0      8.4956    
         TOTAL TIME 2.68100E+08 4.46834E+06  74472.      3103.0      8.4956    
1
 
 SOLVING FOR HEAD 
 ALL LAKES CONVERGED AFTER   2  ITERATIONS
 ALL LAKES CONVERGED AFTER   2  ITERATIONS
 ALL LAKES CONVERGED AFTER   2  ITERATIONS
 ALL LAKES CONVERGED AFTER   2  ITERATIONS
 ALL LAKES CONVERGED AFTER   2  ITERATIONS
 ALL LAKES CONVERGED AFTER   2  ITERATIONS
 ALL LAKES CONVERGED AFTER   2  ITERATIONS
 ALL LAKES CONVERGED AFTER   2  ITERATIONS
 ALL LAKES CONVERGED AFTER   2  ITERATIONS
 ALL LAKES CONVERGED AFTER   2  ITERATIONS
 ALL LAKES CONVERGED AFTER   2  ITERATIONS
 ALL LAKES CONVERGED AFTER   2  ITERATIONS
 ALL LAKES CONVERGED AFTER   2  ITERATIONS
 ALL LAKES CONVERGED AFTER   2  ITERATIONS
 ALL LAKES CONVERGED AFTER   2  ITERATIONS
 ALL LAKES CONVERGED AFTER   2  ITERATIONS
 ALL LAKES CONVERGED AFTER   2  ITERATIONS
 ALL LAKES CONVERGED AFTER   2  ITERATIONS
 ALL LAKES CONVERGED AFTER   2  ITERATIONS
 ALL LAKES CONVERGED AFTER   2  ITERATIONS
 ALL LAKES CONVERGED AFTER   1  ITERATIONS
 ALL LAKES CONVERGED AFTER   2  ITERATIONS
 ALL LAKES CONVERGED AFTER   2  ITERATIONS
 ALL LAKES CONVERGED AFTER   2  ITERATIONS
 ALL LAKES CONVERGED AFTER   1  ITERATIONS
 ALL LAKES CONVERGED AFTER   2  ITERATIONS
 ALL LAKES CONVERGED AFTER   2  ITERATIONS
 ALL LAKES CONVERGED AFTER   1  ITERATIONS
    28 ITERATIONS FOR TIME STEP  81 IN STRESS PERIOD    1

 MAXIMUM HEAD CHANGE FOR EACH ITERATION:

    HEAD CHANGE   HEAD CHANGE   HEAD CHANGE   HEAD CHANGE   HEAD CHANGE
  LAYER,ROW,COL LAYER,ROW,COL LAYER,ROW,COL LAYER,ROW,COL LAYER,ROW,COL
 ----------------------------------------------------------------------
     0.2431E-02    0.2746E-02    0.2645E-02    0.1886E-02    0.2575E-02
  (  3,  8,  8) (  2, 10, 12) (  5, 10,  8) (  2,  7, 10) (  3, 10,  8)
     0.1453E-02    0.1330E-02    0.1122E-02    0.1559E-02    0.9231E-03
  (  2,  7,  7) (  5, 10,  8) (  3,  8, 10) (  3, 10,  8) (  3,  8, 10)
     0.1143E-02    0.7205E-03    0.8511E-03    0.5744E-03    0.7772E-03
  (  3,  8,  8) (  5,  9,  9) (  5, 10,  8) (  3,  8, 10) (  3, 10,  8)
     0.4405E-03    0.4040E-03    0.3395E-03    0.4764E-03    0.2765E-03
  (  2,  7,  7) (  5, 10,  8) (  2,  9, 11) (  3, 10,  8) (  2,  9, 11)
     0.3371E-03    0.2244E-03    0.2569E-03    0.1713E-03    0.2396E-03
  (  3,  8,  8) (  5,  9,  9) (  5, 10,  8) (  3,  8, 10) (  3, 10,  8)
     0.1296E-03    0.1179E-03    0.9191E-04
  (  3,  9, 10) (  5,  8,  7) (  3,  8, 10)


 HEAD/DRAWDOWN PRINTOUT FLAG = 0     TOTAL BUDGET PRINTOUT FLAG = 0
 CELL-BY-CELL FLOW TERM FLAG = 1

 OUTPUT FLAGS FOR ALL LAYERS ARE THE SAME:
   HEAD    DRAWDOWN  HEAD  DRAWDOWN
 PRINTOUT  PRINTOUT  SAVE    SAVE
 ----------------------------------
     0         0       0       0


     0  LAKE CELLS ARE DRY.

 PERIOD     1     TIME STEP    81     TIME STEP LENGTH  7.8074E+01
 PERIOD TIME  3.1811E+03     TOTAL SIMULATION TIME  3.1811E+03


                 HYDROLOGIC BUDGET SUMMARIES FOR SIMULATED LAKES
     (ALL FLUID FLUXES ARE VOLUMES ADDED TO THE LAKE DURING PRESENT TIME STEP)
     -------------------------------------------------------------------------
 LAKE   STAGE     PRECIP       EVAP       RUNOFF
   1   148.17  5.6604E+06  5.0260E+06  0.0000E+00

            GROUND WATER            SURFACE WATER
 LAKE    INFLOW     OUTFLOW      INFLOW     OUTFLOW
   1  1.3724E+06  1.8828E+06  0.0000E+00  0.0000E+00

         WATER    CONNECTED LAKE   UPDATED     TIME-STEP          STAGE CHANGE
 LAKE     USE         INFLUX        VOLUME    SURFACE AREA   TIME STEP  CUMULATIVE
   1   0.0000E+00   0.0000E+00   2.7979E+08    6.2500E+06   1.9385E-02  3.8167E+01
 --------------------------------------------------------------------------------



            CUMULATIVE HYDROLOGIC BUDGET SUMMARIES FOR SIMULATED LAKES
     (ALL FLUID FLUXES ARE SUMS OF VOLUMES ADDED TO THE LAKE SINCE INITIAL TIME)
     ---------------------------------------------------------------------------
 LAKE       PRECIP       EVAP       RUNOFF
   1     2.3063E+08  2.0478E+08  0.0000E+00

            GROUND WATER            SURFACE WATER
 LAKE    INFLOW     OUTFLOW      INFLOW     OUTFLOW
   1  2.4582E+08  3.3013E+07  0.0000E+00  0.0000E+00

         WATER    CONNECTED LAKE
 LAKE     USE         INFLUX
   1   0.0000E+00   0.0000E+00
 --------------------------------------------------------------------------------

 
 SOLVING FOR HEAD 
 ALL LAKES CONVERGED AFTER   2  ITERATIONS
 ALL LAKES CONVERGED AFTER   2  ITERATIONS
 ALL LAKES CONVERGED AFTER   2  ITERATIONS
 ALL LAKES CONVERGED AFTER   2  ITERATIONS
 ALL LAKES CONVERGED AFTER   2  ITERATIONS
 ALL LAKES CONVERGED AFTER   2  ITERATIONS
 ALL LAKES CONVERGED AFTER   2  ITERATIONS
 ALL LAKES CONVERGED AFTER   2  ITERATIONS
 ALL LAKES CONVERGED AFTER   2  ITERATIONS
 ALL LAKES CONVERGED AFTER   2  ITERATIONS
 ALL LAKES CONVERGED AFTER   2  ITERATIONS
 ALL LAKES CONVERGED AFTER   2  ITERATIONS
 ALL LAKES CONVERGED AFTER   2  ITERATIONS
 ALL LAKES CONVERGED AFTER   2  ITERATIONS
 ALL LAKES CONVERGED AFTER   2  ITERATIONS
 ALL LAKES CONVERGED AFTER   2  ITERATIONS
 ALL LAKES CONVERGED AFTER   2  ITERATIONS
 ALL LAKES CONVERGED AFTER   2  ITERATIONS
 ALL LAKES CONVERGED AFTER   2  ITERATIONS
 ALL LAKES CONVERGED AFTER   2  ITERATIONS
 ALL LAKES CONVERGED AFTER   1  ITERATIONS
 ALL LAKES CONVERGED AFTER   2  ITERATIONS
 ALL LAKES CONVERGED AFTER   2  ITERATIONS
 ALL LAKES CONVERGED AFTER   2  ITERATIONS
 ALL LAKES CONVERGED AFTER   1  ITERATIONS
 ALL LAKES CONVERGED AFTER   2  ITERATIONS
 ALL LAKES CONVERGED AFTER   2  ITERATIONS
 ALL LAKES CONVERGED AFTER   1  ITERATIONS
    28 ITERATIONS FOR TIME STEP  82 IN STRESS PERIOD    1

 MAXIMUM HEAD CHANGE FOR EACH ITERATION:

    HEAD CHANGE   HEAD CHANGE   HEAD CHANGE   HEAD CHANGE   HEAD CHANGE
  LAYER,ROW,COL LAYER,ROW,COL LAYER,ROW,COL LAYER,ROW,COL LAYER,ROW,COL
 ----------------------------------------------------------------------
     0.2117E-02    0.2382E-02    0.2307E-02    0.1638E-02    0.2246E-02
  (  3, 10,  8) (  2, 10, 12) (  5, 10,  8) (  2,  7, 10) (  3, 10,  8)
     0.1273E-02    0.1161E-02    0.9800E-03    0.1370E-02    0.8031E-03
  (  2,  7,  7) (  5, 10,  8) (  3,  8, 10) (  3, 10,  8) (  2,  8, 11)
     0.1002E-02    0.6440E-03    0.7573E-03    0.5038E-03    0.6883E-03
  (  3,  8,  8) (  5,  9,  9) (  5, 10,  8) (  3,  8, 10) (  3, 10,  8)
     0.3921E-03    0.3504E-03    0.3057E-03    0.4281E-03    0.2408E-03
  (  2,  7,  7) (  5, 10,  8) (  3,  8, 10) (  3, 10,  8) (  3,  8, 10)
     0.3089E-03    0.1940E-03    0.2334E-03    0.1512E-03    0.2094E-03
  (  3,  8,  8) (  5,  9,  9) (  5, 10,  8) (  3,  8, 10) (  3, 10,  8)
     0.1164E-03    0.1220E-03    0.9211E-04
  (  2,  7,  8) (  5, 10,  8) (  3,  8, 10)


 HEAD/DRAWDOWN PRINTOUT FLAG = 0     TOTAL BUDGET PRINTOUT FLAG = 0
 CELL-BY-CELL FLOW TERM FLAG = 1

 OUTPUT FLAGS FOR ALL LAYERS ARE THE SAME:
   HEAD    DRAWDOWN  HEAD  DRAWDOWN
 PRINTOUT  PRINTOUT  SAVE    SAVE
 ----------------------------------
     0         0       0       0


     0  LAKE CELLS ARE DRY.

 PERIOD     1     TIME STEP    82     TIME STEP LENGTH  7.9635E+01
 PERIOD TIME  3.2607E+03     TOTAL SIMULATION TIME  3.2607E+03


                 HYDROLOGIC BUDGET SUMMARIES FOR SIMULATED LAKES
     (ALL FLUID FLUXES ARE VOLUMES ADDED TO THE LAKE DURING PRESENT TIME STEP)
     -------------------------------------------------------------------------
 LAKE   STAGE     PRECIP       EVAP       RUNOFF
   1   148.18  5.7736E+06  5.1265E+06  0.0000E+00

            GROUND WATER            SURFACE WATER
 LAKE    INFLOW     OUTFLOW      INFLOW     OUTFLOW
   1  1.3919E+06  1.9300E+06  0.0000E+00  0.0000E+00

         WATER    CONNECTED LAKE   UPDATED     TIME-STEP          STAGE CHANGE
 LAKE     USE         INFLUX        VOLUME    SURFACE AREA   TIME STEP  CUMULATIVE
   1   0.0000E+00   0.0000E+00   2.7990E+08    6.2500E+06   1.7042E-02  3.8184E+01
 --------------------------------------------------------------------------------



            CUMULATIVE HYDROLOGIC BUDGET SUMMARIES FOR SIMULATED LAKES
     (ALL FLUID FLUXES ARE SUMS OF VOLUMES ADDED TO THE LAKE SINCE INITIAL TIME)
     ---------------------------------------------------------------------------
 LAKE       PRECIP       EVAP       RUNOFF
   1     2.3640E+08  2.0991E+08  0.0000E+00

            GROUND WATER            SURFACE WATER
 LAKE    INFLOW     OUTFLOW      INFLOW     OUTFLOW
   1  2.4721E+08  3.4943E+07  0.0000E+00  0.0000E+00

         WATER    CONNECTED LAKE
 LAKE     USE         INFLUX
   1   0.0000E+00   0.0000E+00
 --------------------------------------------------------------------------------

 
 SOLVING FOR HEAD 
 ALL LAKES CONVERGED AFTER   2  ITERATIONS
 ALL LAKES CONVERGED AFTER   2  ITERATIONS
 ALL LAKES CONVERGED AFTER   2  ITERATIONS
 ALL LAKES CONVERGED AFTER   2  ITERATIONS
 ALL LAKES CONVERGED AFTER   2  ITERATIONS
 ALL LAKES CONVERGED AFTER   2  ITERATIONS
 ALL LAKES CONVERGED AFTER   2  ITERATIONS
 ALL LAKES CONVERGED AFTER   2  ITERATIONS
 ALL LAKES CONVERGED AFTER   2  ITERATIONS
 ALL LAKES CONVERGED AFTER   2  ITERATIONS
 ALL LAKES CONVERGED AFTER   2  ITERATIONS
 ALL LAKES CONVERGED AFTER   2  ITERATIONS
 ALL LAKES CONVERGED AFTER   2  ITERATIONS
 ALL LAKES CONVERGED AFTER   2  ITERATIONS
 ALL LAKES CONVERGED AFTER   2  ITERATIONS
 ALL LAKES CONVERGED AFTER   2  ITERATIONS
 ALL LAKES CONVERGED AFTER   2  ITERATIONS
 ALL LAKES CONVERGED AFTER   2  ITERATIONS
 ALL LAKES CONVERGED AFTER   2  ITERATIONS
 ALL LAKES CONVERGED AFTER   2  ITERATIONS
 ALL LAKES CONVERGED AFTER   1  ITERATIONS
 ALL LAKES CONVERGED AFTER   2  ITERATIONS
 ALL LAKES CONVERGED AFTER   2  ITERATIONS
 ALL LAKES CONVERGED AFTER   2  ITERATIONS
 ALL LAKES CONVERGED AFTER   1  ITERATIONS
 ALL LAKES CONVERGED AFTER   2  ITERATIONS
    26 ITERATIONS FOR TIME STEP  83 IN STRESS PERIOD    1

 MAXIMUM HEAD CHANGE FOR EACH ITERATION:

    HEAD CHANGE   HEAD CHANGE   HEAD CHANGE   HEAD CHANGE   HEAD CHANGE
  LAYER,ROW,COL LAYER,ROW,COL LAYER,ROW,COL LAYER,ROW,COL LAYER,ROW,COL
 ----------------------------------------------------------------------
     0.1837E-02    0.2062E-02    0.1985E-02    0.1437E-02    0.1956E-02
  (  3, 10,  8) (  2, 10, 12) (  5, 10,  8) (  2,  7, 10) (  3, 10,  8)
     0.1103E-02    0.1024E-02    0.8569E-03    0.1199E-02    0.7137E-03
  (  2,  7,  7) (  5, 10,  8) (  3,  8, 10) (  3, 10,  8) (  2,  8, 11)
     0.8898E-03    0.5596E-03    0.6710E-03    0.4445E-03    0.6093E-03
  (  3,  8,  8) (  5,  9,  9) (  5, 10,  8) (  2,  9, 11) (  3, 10,  8)
     0.3440E-03    0.3247E-03    0.2694E-03    0.3729E-03    0.2280E-03
  (  2,  7,  7) (  5, 10,  8) (  2,  9, 11) (  4, 10,  8) (  2,  8, 11)
     0.2808E-03    0.1737E-03    0.1948E-03    0.1408E-03    0.1994E-03
  (  3,  8,  8) (  3, 10, 11) (  5, 10,  8) (  3,  8, 10) (  3, 10,  8)
     0.9945E-04
  (  2,  7, 11)


 HEAD/DRAWDOWN PRINTOUT FLAG = 0     TOTAL BUDGET PRINTOUT FLAG = 0
 CELL-BY-CELL FLOW TERM FLAG = 1

 OUTPUT FLAGS FOR ALL LAYERS ARE THE SAME:
   HEAD    DRAWDOWN  HEAD  DRAWDOWN
 PRINTOUT  PRINTOUT  SAVE    SAVE
 ----------------------------------
     0         0       0       0


     0  LAKE CELLS ARE DRY.

 PERIOD     1     TIME STEP    83     TIME STEP LENGTH  8.1228E+01
 PERIOD TIME  3.3419E+03     TOTAL SIMULATION TIME  3.3419E+03


                 HYDROLOGIC BUDGET SUMMARIES FOR SIMULATED LAKES
     (ALL FLUID FLUXES ARE VOLUMES ADDED TO THE LAKE DURING PRESENT TIME STEP)
     -------------------------------------------------------------------------
 LAKE   STAGE     PRECIP       EVAP       RUNOFF
   1   148.20  5.8890E+06  5.2291E+06  0.0000E+00

            GROUND WATER            SURFACE WATER
 LAKE    INFLOW     OUTFLOW      INFLOW     OUTFLOW
   1  1.4135E+06  1.9769E+06  0.0000E+00  0.0000E+00

         WATER    CONNECTED LAKE   UPDATED     TIME-STEP          STAGE CHANGE
 LAKE     USE         INFLUX        VOLUME    SURFACE AREA   TIME STEP  CUMULATIVE
   1   0.0000E+00   0.0000E+00   2.7999E+08    6.2500E+06   1.4752E-02  3.8198E+01
 --------------------------------------------------------------------------------



            CUMULATIVE HYDROLOGIC BUDGET SUMMARIES FOR SIMULATED LAKES
     (ALL FLUID FLUXES ARE SUMS OF VOLUMES ADDED TO THE LAKE SINCE INITIAL TIME)
     ---------------------------------------------------------------------------
 LAKE       PRECIP       EVAP       RUNOFF
   1     2.4229E+08  2.1514E+08  0.0000E+00

            GROUND WATER            SURFACE WATER
 LAKE    INFLOW     OUTFLOW      INFLOW     OUTFLOW
   1  2.4862E+08  3.6919E+07  0.0000E+00  0.0000E+00

         WATER    CONNECTED LAKE
 LAKE     USE         INFLUX
   1   0.0000E+00   0.0000E+00
 --------------------------------------------------------------------------------

 
 SOLVING FOR HEAD 
 ALL LAKES CONVERGED AFTER   2  ITERATIONS
 ALL LAKES CONVERGED AFTER   2  ITERATIONS
 ALL LAKES CONVERGED AFTER   2  ITERATIONS
 ALL LAKES CONVERGED AFTER   2  ITERATIONS
 ALL LAKES CONVERGED AFTER   2  ITERATIONS
 ALL LAKES CONVERGED AFTER   2  ITERATIONS
 ALL LAKES CONVERGED AFTER   2  ITERATIONS
 ALL LAKES CONVERGED AFTER   2  ITERATIONS
 ALL LAKES CONVERGED AFTER   2  ITERATIONS
 ALL LAKES CONVERGED AFTER   2  ITERATIONS
 ALL LAKES CONVERGED AFTER   2  ITERATIONS
 ALL LAKES CONVERGED AFTER   2  ITERATIONS
 ALL LAKES CONVERGED AFTER   2  ITERATIONS
 ALL LAKES CONVERGED AFTER   2  ITERATIONS
 ALL LAKES CONVERGED AFTER   2  ITERATIONS
 ALL LAKES CONVERGED AFTER   2  ITERATIONS
 ALL LAKES CONVERGED AFTER   2  ITERATIONS
 ALL LAKES CONVERGED AFTER   2  ITERATIONS
 ALL LAKES CONVERGED AFTER   2  ITERATIONS
 ALL LAKES CONVERGED AFTER   2  ITERATIONS
 ALL LAKES CONVERGED AFTER   1  ITERATIONS
 ALL LAKES CONVERGED AFTER   2  ITERATIONS
 ALL LAKES CONVERGED AFTER   2  ITERATIONS
 ALL LAKES CONVERGED AFTER   2  ITERATIONS
 ALL LAKES CONVERGED AFTER   1  ITERATIONS
 ALL LAKES CONVERGED AFTER   2  ITERATIONS
 ALL LAKES CONVERGED AFTER   1  ITERATIONS
    27 ITERATIONS FOR TIME STEP  84 IN STRESS PERIOD    1

 MAXIMUM HEAD CHANGE FOR EACH ITERATION:

    HEAD CHANGE   HEAD CHANGE   HEAD CHANGE   HEAD CHANGE   HEAD CHANGE
  LAYER,ROW,COL LAYER,ROW,COL LAYER,ROW,COL LAYER,ROW,COL LAYER,ROW,COL
 ----------------------------------------------------------------------
     0.1567E-02    0.1777E-02    0.1724E-02    0.1238E-02    0.1697E-02
  (  3, 10,  8) (  2, 10, 12) (  5, 10,  8) (  2,  7,  9) (  3, 10,  8)
     0.9694E-03    0.8901E-03    0.7551E-03    0.1057E-02    0.6324E-03
  (  2,  7,  7) (  5, 10,  8) (  3,  8, 10) (  3, 10,  8) (  3,  8, 10)
     0.7957E-03    0.4955E-03    0.5932E-03    0.3951E-03    0.5389E-03
  (  3,  8,  8) (  5,  9,  9) (  5, 10,  8) (  2,  9, 11) (  3, 10,  8)
     0.3149E-03    0.2849E-03    0.2446E-03    0.3421E-03    0.2005E-03
  (  2,  7,  7) (  5,  9, 11) (  3,  8, 10) (  3, 10,  8) (  3,  8, 10)
     0.2435E-03    0.1624E-03    0.1895E-03    0.1209E-03    0.1594E-03
  (  3,  8,  8) (  4,  7,  8) (  5, 10,  8) (  3,  8, 10) (  3, 10,  8)
     0.1046E-03    0.8481E-04
  (  2,  7,  7) (  5,  8, 11)


 HEAD/DRAWDOWN PRINTOUT FLAG = 0     TOTAL BUDGET PRINTOUT FLAG = 0
 CELL-BY-CELL FLOW TERM FLAG = 1

 OUTPUT FLAGS FOR ALL LAYERS ARE THE SAME:
   HEAD    DRAWDOWN  HEAD  DRAWDOWN
 PRINTOUT  PRINTOUT  SAVE    SAVE
 ----------------------------------
     0         0       0       0


     0  LAKE CELLS ARE DRY.

 PERIOD     1     TIME STEP    84     TIME STEP LENGTH  8.2853E+01
 PERIOD TIME  3.4248E+03     TOTAL SIMULATION TIME  3.4248E+03


                 HYDROLOGIC BUDGET SUMMARIES FOR SIMULATED LAKES
     (ALL FLUID FLUXES ARE VOLUMES ADDED TO THE LAKE DURING PRESENT TIME STEP)
     -------------------------------------------------------------------------
 LAKE   STAGE     PRECIP       EVAP       RUNOFF
   1   148.21  6.0068E+06  5.3336E+06  0.0000E+00

            GROUND WATER            SURFACE WATER
 LAKE    INFLOW     OUTFLOW      INFLOW     OUTFLOW
   1  1.4355E+06  2.0238E+06  0.0000E+00  0.0000E+00

         WATER    CONNECTED LAKE   UPDATED     TIME-STEP          STAGE CHANGE
 LAKE     USE         INFLUX        VOLUME    SURFACE AREA   TIME STEP  CUMULATIVE
   1   0.0000E+00   0.0000E+00   2.8007E+08    6.2500E+06   1.2989E-02  3.8211E+01
 --------------------------------------------------------------------------------



            CUMULATIVE HYDROLOGIC BUDGET SUMMARIES FOR SIMULATED LAKES
     (ALL FLUID FLUXES ARE SUMS OF VOLUMES ADDED TO THE LAKE SINCE INITIAL TIME)
     ---------------------------------------------------------------------------
 LAKE       PRECIP       EVAP       RUNOFF
   1     2.4830E+08  2.2047E+08  0.0000E+00

            GROUND WATER            SURFACE WATER
 LAKE    INFLOW     OUTFLOW      INFLOW     OUTFLOW
   1  2.5006E+08  3.8943E+07  0.0000E+00  0.0000E+00

         WATER    CONNECTED LAKE
 LAKE     USE         INFLUX
   1   0.0000E+00   0.0000E+00
 --------------------------------------------------------------------------------

 
 SOLVING FOR HEAD 
 ALL LAKES CONVERGED AFTER   2  ITERATIONS
 ALL LAKES CONVERGED AFTER   2  ITERATIONS
 ALL LAKES CONVERGED AFTER   2  ITERATIONS
 ALL LAKES CONVERGED AFTER   2  ITERATIONS
 ALL LAKES CONVERGED AFTER   2  ITERATIONS
 ALL LAKES CONVERGED AFTER   2  ITERATIONS
 ALL LAKES CONVERGED AFTER   2  ITERATIONS
 ALL LAKES CONVERGED AFTER   2  ITERATIONS
 ALL LAKES CONVERGED AFTER   2  ITERATIONS
 ALL LAKES CONVERGED AFTER   2  ITERATIONS
 ALL LAKES CONVERGED AFTER   2  ITERATIONS
 ALL LAKES CONVERGED AFTER   2  ITERATIONS
 ALL LAKES CONVERGED AFTER   2  ITERATIONS
 ALL LAKES CONVERGED AFTER   2  ITERATIONS
 ALL LAKES CONVERGED AFTER   2  ITERATIONS
 ALL LAKES CONVERGED AFTER   2  ITERATIONS
 ALL LAKES CONVERGED AFTER   2  ITERATIONS
 ALL LAKES CONVERGED AFTER   2  ITERATIONS
 ALL LAKES CONVERGED AFTER   2  ITERATIONS
 ALL LAKES CONVERGED AFTER   2  ITERATIONS
 ALL LAKES CONVERGED AFTER   1  ITERATIONS
 ALL LAKES CONVERGED AFTER   2  ITERATIONS
 ALL LAKES CONVERGED AFTER   2  ITERATIONS
 ALL LAKES CONVERGED AFTER   2  ITERATIONS
 ALL LAKES CONVERGED AFTER   1  ITERATIONS
 ALL LAKES CONVERGED AFTER   1  ITERATIONS
    26 ITERATIONS FOR TIME STEP  85 IN STRESS PERIOD    1

 MAXIMUM HEAD CHANGE FOR EACH ITERATION:

    HEAD CHANGE   HEAD CHANGE   HEAD CHANGE   HEAD CHANGE   HEAD CHANGE
  LAYER,ROW,COL LAYER,ROW,COL LAYER,ROW,COL LAYER,ROW,COL LAYER,ROW,COL
 ----------------------------------------------------------------------
     0.1344E-02    0.1543E-02    0.1479E-02    0.1059E-02    0.1477E-02
  (  3,  9,  9) (  2, 10, 12) (  5, 10,  8) (  2,  7, 10) (  3, 10,  8)
     0.8358E-03    0.7757E-03    0.6628E-03    0.9121E-03    0.5452E-03
  (  2,  7,  7) (  5, 10,  8) (  3,  8, 10) (  3, 10,  8) (  2,  8, 11)
     0.6746E-03    0.4393E-03    0.5195E-03    0.3453E-03    0.4792E-03
  (  3,  8,  8) (  5,  9,  9) (  5, 10,  8) (  2,  7, 11) (  3, 10,  8)
     0.2764E-03    0.2570E-03    0.2142E-03    0.2948E-03    0.1780E-03
  (  2,  7,  7) (  5, 10,  8) (  3,  8, 10) (  3, 10,  8) (  2,  8, 11)
     0.2156E-03    0.1395E-03    0.1700E-03    0.1082E-03    0.1497E-03
  (  3,  8,  8) (  5,  9,  9) (  5, 10,  8) (  2,  7, 11) (  3, 10,  8)
     0.8616E-04
  (  2,  7,  7)


 HEAD/DRAWDOWN PRINTOUT FLAG = 0     TOTAL BUDGET PRINTOUT FLAG = 0
 CELL-BY-CELL FLOW TERM FLAG = 1

 OUTPUT FLAGS FOR ALL LAYERS ARE THE SAME:
   HEAD    DRAWDOWN  HEAD  DRAWDOWN
 PRINTOUT  PRINTOUT  SAVE    SAVE
 ----------------------------------
     0         0       0       0


     0  LAKE CELLS ARE DRY.

 PERIOD     1     TIME STEP    85     TIME STEP LENGTH  8.4510E+01
 PERIOD TIME  3.5093E+03     TOTAL SIMULATION TIME  3.5093E+03


                 HYDROLOGIC BUDGET SUMMARIES FOR SIMULATED LAKES
     (ALL FLUID FLUXES ARE VOLUMES ADDED TO THE LAKE DURING PRESENT TIME STEP)
     -------------------------------------------------------------------------
 LAKE   STAGE     PRECIP       EVAP       RUNOFF
   1   148.22  6.1270E+06  5.4403E+06  0.0000E+00

            GROUND WATER            SURFACE WATER
 LAKE    INFLOW     OUTFLOW      INFLOW     OUTFLOW
   1  1.4585E+06  2.0713E+06  0.0000E+00  0.0000E+00

         WATER    CONNECTED LAKE   UPDATED     TIME-STEP          STAGE CHANGE
 LAKE     USE         INFLUX        VOLUME    SURFACE AREA   TIME STEP  CUMULATIVE
   1   0.0000E+00   0.0000E+00   2.8014E+08    6.2500E+06   1.1215E-02  3.8223E+01
 --------------------------------------------------------------------------------



            CUMULATIVE HYDROLOGIC BUDGET SUMMARIES FOR SIMULATED LAKES
     (ALL FLUID FLUXES ARE SUMS OF VOLUMES ADDED TO THE LAKE SINCE INITIAL TIME)
     ---------------------------------------------------------------------------
 LAKE       PRECIP       EVAP       RUNOFF
   1     2.5442E+08  2.2591E+08  0.0000E+00

            GROUND WATER            SURFACE WATER
 LAKE    INFLOW     OUTFLOW      INFLOW     OUTFLOW
   1  2.5152E+08  4.1015E+07  0.0000E+00  0.0000E+00

         WATER    CONNECTED LAKE
 LAKE     USE         INFLUX
   1   0.0000E+00   0.0000E+00
 --------------------------------------------------------------------------------

 
 SOLVING FOR HEAD 
 ALL LAKES CONVERGED AFTER   2  ITERATIONS
 ALL LAKES CONVERGED AFTER   2  ITERATIONS
 ALL LAKES CONVERGED AFTER   2  ITERATIONS
 ALL LAKES CONVERGED AFTER   2  ITERATIONS
 ALL LAKES CONVERGED AFTER   2  ITERATIONS
 ALL LAKES CONVERGED AFTER   2  ITERATIONS
 ALL LAKES CONVERGED AFTER   2  ITERATIONS
 ALL LAKES CONVERGED AFTER   2  ITERATIONS
 ALL LAKES CONVERGED AFTER   2  ITERATIONS
 ALL LAKES CONVERGED AFTER   2  ITERATIONS
 ALL LAKES CONVERGED AFTER   2  ITERATIONS
 ALL LAKES CONVERGED AFTER   2  ITERATIONS
 ALL LAKES CONVERGED AFTER   2  ITERATIONS
 ALL LAKES CONVERGED AFTER   2  ITERATIONS
 ALL LAKES CONVERGED AFTER   2  ITERATIONS
 ALL LAKES CONVERGED AFTER   2  ITERATIONS
 ALL LAKES CONVERGED AFTER   2  ITERATIONS
 ALL LAKES CONVERGED AFTER   2  ITERATIONS
 ALL LAKES CONVERGED AFTER   1  ITERATIONS
 ALL LAKES CONVERGED AFTER   2  ITERATIONS
 ALL LAKES CONVERGED AFTER   1  ITERATIONS
 ALL LAKES CONVERGED AFTER   2  ITERATIONS
 ALL LAKES CONVERGED AFTER   1  ITERATIONS
 ALL LAKES CONVERGED AFTER   2  ITERATIONS
 ALL LAKES CONVERGED AFTER   1  ITERATIONS
 ALL LAKES CONVERGED AFTER   1  ITERATIONS
    26 ITERATIONS FOR TIME STEP  86 IN STRESS PERIOD    1

 MAXIMUM HEAD CHANGE FOR EACH ITERATION:

    HEAD CHANGE   HEAD CHANGE   HEAD CHANGE   HEAD CHANGE   HEAD CHANGE
  LAYER,ROW,COL LAYER,ROW,COL LAYER,ROW,COL LAYER,ROW,COL LAYER,ROW,COL
 ----------------------------------------------------------------------
     0.1156E-02    0.1317E-02    0.1287E-02    0.9197E-03    0.1268E-02
  (  3, 10,  8) (  2, 10, 12) (  5, 10,  8) (  2,  7, 10) (  3, 10,  8)
     0.7235E-03    0.6753E-03    0.5612E-03    0.8005E-03    0.4816E-03
  (  2,  7,  7) (  5, 10,  8) (  3,  8, 10) (  3, 10,  8) (  3,  8, 10)
     0.5900E-03    0.3854E-03    0.4562E-03    0.3023E-03    0.4187E-03
  (  3,  8,  8) (  5,  9,  9) (  5, 10,  8) (  3,  8, 10) (  3, 10,  8)
     0.2306E-03    0.2138E-03    0.1835E-03    0.2566E-03    0.1505E-03
  (  2,  7,  7) (  5, 10,  8) (  3,  8, 10) (  3, 10,  8) (  3,  8, 10)
     0.1966E-03    0.1323E-03    0.1458E-03    0.1106E-03    0.1393E-03
  (  3,  8,  8) (  4,  7,  8) (  5, 10,  8) (  3,  8, 10) (  3, 10,  8)
     0.8617E-04
  (  2,  7,  7)


 HEAD/DRAWDOWN PRINTOUT FLAG = 0     TOTAL BUDGET PRINTOUT FLAG = 0
 CELL-BY-CELL FLOW TERM FLAG = 1

 OUTPUT FLAGS FOR ALL LAYERS ARE THE SAME:
   HEAD    DRAWDOWN  HEAD  DRAWDOWN
 PRINTOUT  PRINTOUT  SAVE    SAVE
 ----------------------------------
     0         0       0       0


     0  LAKE CELLS ARE DRY.

 PERIOD     1     TIME STEP    86     TIME STEP LENGTH  8.6200E+01
 PERIOD TIME  3.5955E+03     TOTAL SIMULATION TIME  3.5955E+03


                 HYDROLOGIC BUDGET SUMMARIES FOR SIMULATED LAKES
     (ALL FLUID FLUXES ARE VOLUMES ADDED TO THE LAKE DURING PRESENT TIME STEP)
     -------------------------------------------------------------------------
 LAKE   STAGE     PRECIP       EVAP       RUNOFF
   1   148.23  6.2495E+06  5.5491E+06  0.0000E+00

            GROUND WATER            SURFACE WATER
 LAKE    INFLOW     OUTFLOW      INFLOW     OUTFLOW
   1  1.4827E+06  2.1187E+06  0.0000E+00  0.0000E+00

         WATER    CONNECTED LAKE   UPDATED     TIME-STEP          STAGE CHANGE
 LAKE     USE         INFLUX        VOLUME    SURFACE AREA   TIME STEP  CUMULATIVE
   1   0.0000E+00   0.0000E+00   2.8020E+08    6.2500E+06   9.6932E-03  3.8232E+01
 --------------------------------------------------------------------------------



            CUMULATIVE HYDROLOGIC BUDGET SUMMARIES FOR SIMULATED LAKES
     (ALL FLUID FLUXES ARE SUMS OF VOLUMES ADDED TO THE LAKE SINCE INITIAL TIME)
     ---------------------------------------------------------------------------
 LAKE       PRECIP       EVAP       RUNOFF
   1     2.6067E+08  2.3146E+08  0.0000E+00

            GROUND WATER            SURFACE WATER
 LAKE    INFLOW     OUTFLOW      INFLOW     OUTFLOW
   1  2.5300E+08  4.3133E+07  0.0000E+00  0.0000E+00

         WATER    CONNECTED LAKE
 LAKE     USE         INFLUX
   1   0.0000E+00   0.0000E+00
 --------------------------------------------------------------------------------

 
 SOLVING FOR HEAD 
 ALL LAKES CONVERGED AFTER   2  ITERATIONS
 ALL LAKES CONVERGED AFTER   2  ITERATIONS
 ALL LAKES CONVERGED AFTER   2  ITERATIONS
 ALL LAKES CONVERGED AFTER   2  ITERATIONS
 ALL LAKES CONVERGED AFTER   2  ITERATIONS
 ALL LAKES CONVERGED AFTER   2  ITERATIONS
 ALL LAKES CONVERGED AFTER   2  ITERATIONS
 ALL LAKES CONVERGED AFTER   2  ITERATIONS
 ALL LAKES CONVERGED AFTER   2  ITERATIONS
 ALL LAKES CONVERGED AFTER   2  ITERATIONS
 ALL LAKES CONVERGED AFTER   2  ITERATIONS
 ALL LAKES CONVERGED AFTER   2  ITERATIONS
 ALL LAKES CONVERGED AFTER   2  ITERATIONS
 ALL LAKES CONVERGED AFTER   2  ITERATIONS
 ALL LAKES CONVERGED AFTER   2  ITERATIONS
 ALL LAKES CONVERGED AFTER   2  ITERATIONS
 ALL LAKES CONVERGED AFTER   2  ITERATIONS
 ALL LAKES CONVERGED AFTER   2  ITERATIONS
 ALL LAKES CONVERGED AFTER   1  ITERATIONS
 ALL LAKES CONVERGED AFTER   2  ITERATIONS
 ALL LAKES CONVERGED AFTER   1  ITERATIONS
 ALL LAKES CONVERGED AFTER   2  ITERATIONS
 ALL LAKES CONVERGED AFTER   1  ITERATIONS
 ALL LAKES CONVERGED AFTER   1  ITERATIONS
    24 ITERATIONS FOR TIME STEP  87 IN STRESS PERIOD    1

 MAXIMUM HEAD CHANGE FOR EACH ITERATION:

    HEAD CHANGE   HEAD CHANGE   HEAD CHANGE   HEAD CHANGE   HEAD CHANGE
  LAYER,ROW,COL LAYER,ROW,COL LAYER,ROW,COL LAYER,ROW,COL LAYER,ROW,COL
 ----------------------------------------------------------------------
     0.9774E-03    0.1134E-02    0.1079E-02    0.7894E-03    0.1078E-02
  (  3, 10,  8) (  2, 10, 12) (  5, 10,  8) (  2,  7, 10) (  3, 10,  8)
     0.6105E-03    0.5734E-03    0.4898E-03    0.6850E-03    0.4064E-03
  (  2,  7,  7) (  5, 10,  8) (  3,  8, 10) (  3, 10,  8) (  2,  8, 11)
     0.5060E-03    0.3321E-03    0.3829E-03    0.2667E-03    0.3595E-03
  (  3,  8,  8) (  5,  9,  9) (  5, 10,  8) (  2,  9, 11) (  3, 10,  8)
     0.2014E-03    0.1900E-03    0.1631E-03    0.2267E-03    0.1386E-03
  (  2,  7,  7) (  5, 10,  8) (  3,  8, 10) (  3, 10,  8) (  2,  8, 11)
     0.1690E-03    0.1170E-03    0.1403E-03    0.9070E-04
  (  3,  8,  8) (  5,  9,  9) (  5, 10,  8) (  3,  8, 10)


 HEAD/DRAWDOWN PRINTOUT FLAG = 0     TOTAL BUDGET PRINTOUT FLAG = 0
 CELL-BY-CELL FLOW TERM FLAG = 1

 OUTPUT FLAGS FOR ALL LAYERS ARE THE SAME:
   HEAD    DRAWDOWN  HEAD  DRAWDOWN
 PRINTOUT  PRINTOUT  SAVE    SAVE
 ----------------------------------
     0         0       0       0


     0  LAKE CELLS ARE DRY.

 PERIOD     1     TIME STEP    87     TIME STEP LENGTH  8.7924E+01
 PERIOD TIME  3.6834E+03     TOTAL SIMULATION TIME  3.6834E+03


                 HYDROLOGIC BUDGET SUMMARIES FOR SIMULATED LAKES
     (ALL FLUID FLUXES ARE VOLUMES ADDED TO THE LAKE DURING PRESENT TIME STEP)
     -------------------------------------------------------------------------
 LAKE   STAGE     PRECIP       EVAP       RUNOFF
   1   148.24  6.3745E+06  5.6601E+06  0.0000E+00

            GROUND WATER            SURFACE WATER
 LAKE    INFLOW     OUTFLOW      INFLOW     OUTFLOW
   1  1.5064E+06  2.1673E+06  0.0000E+00  0.0000E+00

         WATER    CONNECTED LAKE   UPDATED     TIME-STEP          STAGE CHANGE
 LAKE     USE         INFLUX        VOLUME    SURFACE AREA   TIME STEP  CUMULATIVE
   1   0.0000E+00   0.0000E+00   2.8025E+08    6.2500E+06   8.2318E-03  3.8241E+01
 --------------------------------------------------------------------------------



            CUMULATIVE HYDROLOGIC BUDGET SUMMARIES FOR SIMULATED LAKES
     (ALL FLUID FLUXES ARE SUMS OF VOLUMES ADDED TO THE LAKE SINCE INITIAL TIME)
     ---------------------------------------------------------------------------
 LAKE       PRECIP       EVAP       RUNOFF
   1     2.6705E+08  2.3712E+08  0.0000E+00

            GROUND WATER            SURFACE WATER
 LAKE    INFLOW     OUTFLOW      INFLOW     OUTFLOW
   1  2.5451E+08  4.5301E+07  0.0000E+00  0.0000E+00

         WATER    CONNECTED LAKE
 LAKE     USE         INFLUX
   1   0.0000E+00   0.0000E+00
 --------------------------------------------------------------------------------

 
 SOLVING FOR HEAD 
 ALL LAKES CONVERGED AFTER   2  ITERATIONS
 ALL LAKES CONVERGED AFTER   2  ITERATIONS
 ALL LAKES CONVERGED AFTER   2  ITERATIONS
 ALL LAKES CONVERGED AFTER   2  ITERATIONS
 ALL LAKES CONVERGED AFTER   2  ITERATIONS
 ALL LAKES CONVERGED AFTER   2  ITERATIONS
 ALL LAKES CONVERGED AFTER   2  ITERATIONS
 ALL LAKES CONVERGED AFTER   2  ITERATIONS
 ALL LAKES CONVERGED AFTER   2  ITERATIONS
 ALL LAKES CONVERGED AFTER   2  ITERATIONS
 ALL LAKES CONVERGED AFTER   2  ITERATIONS
 ALL LAKES CONVERGED AFTER   2  ITERATIONS
 ALL LAKES CONVERGED AFTER   2  ITERATIONS
 ALL LAKES CONVERGED AFTER   2  ITERATIONS
 ALL LAKES CONVERGED AFTER   1  ITERATIONS
 ALL LAKES CONVERGED AFTER   2  ITERATIONS
 ALL LAKES CONVERGED AFTER   2  ITERATIONS
 ALL LAKES CONVERGED AFTER   2  ITERATIONS
 ALL LAKES CONVERGED AFTER   1  ITERATIONS
 ALL LAKES CONVERGED AFTER   2  ITERATIONS
 ALL LAKES CONVERGED AFTER   1  ITERATIONS
 ALL LAKES CONVERGED AFTER   1  ITERATIONS
 ALL LAKES CONVERGED AFTER   1  ITERATIONS
 ALL LAKES CONVERGED AFTER   1  ITERATIONS
    24 ITERATIONS FOR TIME STEP  88 IN STRESS PERIOD    1

 MAXIMUM HEAD CHANGE FOR EACH ITERATION:

    HEAD CHANGE   HEAD CHANGE   HEAD CHANGE   HEAD CHANGE   HEAD CHANGE
  LAYER,ROW,COL LAYER,ROW,COL LAYER,ROW,COL LAYER,ROW,COL LAYER,ROW,COL
 ----------------------------------------------------------------------
     0.8757E-03    0.9413E-03    0.9456E-03    0.6798E-03    0.9383E-03
  (  3, 10, 10) (  2, 10, 12) (  5, 10,  8) (  2,  7, 10) (  3, 10,  8)
     0.5430E-03    0.5065E-03    0.4283E-03    0.5990E-03    0.3667E-03
  (  2,  7,  7) (  5, 10,  8) (  3,  8, 10) (  3, 10,  8) (  2,  8, 11)
     0.4498E-03    0.2897E-03    0.3345E-03    0.2370E-03    0.3193E-03
  (  3,  8,  8) (  5,  9,  9) (  5, 10,  8) (  2,  9, 11) (  3, 10,  8)
     0.1903E-03    0.1761E-03    0.1619E-03    0.2086E-03    0.1204E-03
  (  2,  7,  7) (  5, 10,  9) (  3,  8, 10) (  3, 10,  8) (  3,  8, 10)
     0.1592E-03    0.1066E-03    0.1124E-03    0.8018E-04
  (  3,  8,  8) (  2,  7,  9) (  5, 10,  8) (  3,  8, 10)


 HEAD/DRAWDOWN PRINTOUT FLAG = 0     TOTAL BUDGET PRINTOUT FLAG = 0
 CELL-BY-CELL FLOW TERM FLAG = 1

 OUTPUT FLAGS FOR ALL LAYERS ARE THE SAME:
   HEAD    DRAWDOWN  HEAD  DRAWDOWN
 PRINTOUT  PRINTOUT  SAVE    SAVE
 ----------------------------------
     0         0       0       0


     0  LAKE CELLS ARE DRY.

 PERIOD     1     TIME STEP    88     TIME STEP LENGTH  8.9682E+01
 PERIOD TIME  3.7731E+03     TOTAL SIMULATION TIME  3.7731E+03


                 HYDROLOGIC BUDGET SUMMARIES FOR SIMULATED LAKES
     (ALL FLUID FLUXES ARE VOLUMES ADDED TO THE LAKE DURING PRESENT TIME STEP)
     -------------------------------------------------------------------------
 LAKE   STAGE     PRECIP       EVAP       RUNOFF
   1   148.25  6.5020E+06  5.7733E+06  0.0000E+00

            GROUND WATER            SURFACE WATER
 LAKE    INFLOW     OUTFLOW      INFLOW     OUTFLOW
   1  1.5329E+06  2.2149E+06  0.0000E+00  0.0000E+00

         WATER    CONNECTED LAKE   UPDATED     TIME-STEP          STAGE CHANGE
 LAKE     USE         INFLUX        VOLUME    SURFACE AREA   TIME STEP  CUMULATIVE
   1   0.0000E+00   0.0000E+00   2.8030E+08    6.2500E+06   7.1396E-03  3.8248E+01
 --------------------------------------------------------------------------------



            CUMULATIVE HYDROLOGIC BUDGET SUMMARIES FOR SIMULATED LAKES
     (ALL FLUID FLUXES ARE SUMS OF VOLUMES ADDED TO THE LAKE SINCE INITIAL TIME)
     ---------------------------------------------------------------------------
 LAKE       PRECIP       EVAP       RUNOFF
   1     2.7355E+08  2.4289E+08  0.0000E+00

            GROUND WATER            SURFACE WATER
 LAKE    INFLOW     OUTFLOW      INFLOW     OUTFLOW
   1  2.5604E+08  4.7516E+07  0.0000E+00  0.0000E+00

         WATER    CONNECTED LAKE
 LAKE     USE         INFLUX
   1   0.0000E+00   0.0000E+00
 --------------------------------------------------------------------------------

 
 SOLVING FOR HEAD 
 ALL LAKES CONVERGED AFTER   2  ITERATIONS
 ALL LAKES CONVERGED AFTER   2  ITERATIONS
 ALL LAKES CONVERGED AFTER   2  ITERATIONS
 ALL LAKES CONVERGED AFTER   2  ITERATIONS
 ALL LAKES CONVERGED AFTER   2  ITERATIONS
 ALL LAKES CONVERGED AFTER   2  ITERATIONS
 ALL LAKES CONVERGED AFTER   2  ITERATIONS
 ALL LAKES CONVERGED AFTER   2  ITERATIONS
 ALL LAKES CONVERGED AFTER   2  ITERATIONS
 ALL LAKES CONVERGED AFTER   2  ITERATIONS
 ALL LAKES CONVERGED AFTER   2  ITERATIONS
 ALL LAKES CONVERGED AFTER   2  ITERATIONS
 ALL LAKES CONVERGED AFTER   2  ITERATIONS
 ALL LAKES CONVERGED AFTER   2  ITERATIONS
 ALL LAKES CONVERGED AFTER   1  ITERATIONS
 ALL LAKES CONVERGED AFTER   2  ITERATIONS
 ALL LAKES CONVERGED AFTER   2  ITERATIONS
 ALL LAKES CONVERGED AFTER   2  ITERATIONS
 ALL LAKES CONVERGED AFTER   1  ITERATIONS
 ALL LAKES CONVERGED AFTER   2  ITERATIONS
 ALL LAKES CONVERGED AFTER   1  ITERATIONS
 ALL LAKES CONVERGED AFTER   1  ITERATIONS
    22 ITERATIONS FOR TIME STEP  89 IN STRESS PERIOD    1

 MAXIMUM HEAD CHANGE FOR EACH ITERATION:

    HEAD CHANGE   HEAD CHANGE   HEAD CHANGE   HEAD CHANGE   HEAD CHANGE
  LAYER,ROW,COL LAYER,ROW,COL LAYER,ROW,COL LAYER,ROW,COL LAYER,ROW,COL
 ----------------------------------------------------------------------
     0.7442E-03    0.8042E-03    0.8000E-03    0.5747E-03    0.7983E-03
  (  3,  8,  8) (  2, 10, 12) (  5, 10,  8) (  3,  8, 10) (  3, 10,  8)
     0.4558E-03    0.4367E-03    0.3672E-03    0.5135E-03    0.3072E-03
  (  2,  7,  7) (  5, 10,  8) (  3,  8, 10) (  3, 10,  8) (  2,  8, 11)
     0.3842E-03    0.2567E-03    0.3002E-03    0.2013E-03    0.2690E-03
  (  3,  8,  8) (  5,  9,  9) (  5, 10,  8) (  3,  8, 10) (  3, 10,  8)
     0.1628E-03    0.1475E-03    0.1224E-03    0.1712E-03    0.1102E-03
  (  2,  7,  7) (  5,  9, 11) (  3,  8, 10) (  3, 10,  8) (  3,  8, 10)
     0.1311E-03    0.9514E-04
  (  3,  8,  8) (  4,  9,  9)


 HEAD/DRAWDOWN PRINTOUT FLAG = 0     TOTAL BUDGET PRINTOUT FLAG = 0
 CELL-BY-CELL FLOW TERM FLAG = 1

 OUTPUT FLAGS FOR ALL LAYERS ARE THE SAME:
   HEAD    DRAWDOWN  HEAD  DRAWDOWN
 PRINTOUT  PRINTOUT  SAVE    SAVE
 ----------------------------------
     0         0       0       0


     0  LAKE CELLS ARE DRY.

 PERIOD     1     TIME STEP    89     TIME STEP LENGTH  9.1476E+01
 PERIOD TIME  3.8646E+03     TOTAL SIMULATION TIME  3.8646E+03


                 HYDROLOGIC BUDGET SUMMARIES FOR SIMULATED LAKES
     (ALL FLUID FLUXES ARE VOLUMES ADDED TO THE LAKE DURING PRESENT TIME STEP)
     -------------------------------------------------------------------------
 LAKE   STAGE     PRECIP       EVAP       RUNOFF
   1   148.25  6.6320E+06  5.8888E+06  0.0000E+00

            GROUND WATER            SURFACE WATER
 LAKE    INFLOW     OUTFLOW      INFLOW     OUTFLOW
   1  1.5612E+06  2.2628E+06  0.0000E+00  0.0000E+00

         WATER    CONNECTED LAKE   UPDATED     TIME-STEP          STAGE CHANGE
 LAKE     USE         INFLUX        VOLUME    SURFACE AREA   TIME STEP  CUMULATIVE
   1   0.0000E+00   0.0000E+00   2.8034E+08    6.2500E+06   6.0299E-03  3.8254E+01
 --------------------------------------------------------------------------------



            CUMULATIVE HYDROLOGIC BUDGET SUMMARIES FOR SIMULATED LAKES
     (ALL FLUID FLUXES ARE SUMS OF VOLUMES ADDED TO THE LAKE SINCE INITIAL TIME)
     ---------------------------------------------------------------------------
 LAKE       PRECIP       EVAP       RUNOFF
   1     2.8018E+08  2.4878E+08  0.0000E+00

            GROUND WATER            SURFACE WATER
 LAKE    INFLOW     OUTFLOW      INFLOW     OUTFLOW
   1  2.5760E+08  4.9778E+07  0.0000E+00  0.0000E+00

         WATER    CONNECTED LAKE
 LAKE     USE         INFLUX
   1   0.0000E+00   0.0000E+00
 --------------------------------------------------------------------------------

 
 SOLVING FOR HEAD 
 ALL LAKES CONVERGED AFTER   2  ITERATIONS
 ALL LAKES CONVERGED AFTER   2  ITERATIONS
 ALL LAKES CONVERGED AFTER   2  ITERATIONS
 ALL LAKES CONVERGED AFTER   2  ITERATIONS
 ALL LAKES CONVERGED AFTER   2  ITERATIONS
 ALL LAKES CONVERGED AFTER   2  ITERATIONS
 ALL LAKES CONVERGED AFTER   2  ITERATIONS
 ALL LAKES CONVERGED AFTER   2  ITERATIONS
 ALL LAKES CONVERGED AFTER   2  ITERATIONS
 ALL LAKES CONVERGED AFTER   2  ITERATIONS
 ALL LAKES CONVERGED AFTER   1  ITERATIONS
 ALL LAKES CONVERGED AFTER   2  ITERATIONS
 ALL LAKES CONVERGED AFTER   2  ITERATIONS
 ALL LAKES CONVERGED AFTER   2  ITERATIONS
 ALL LAKES CONVERGED AFTER   1  ITERATIONS
 ALL LAKES CONVERGED AFTER   2  ITERATIONS
 ALL LAKES CONVERGED AFTER   2  ITERATIONS
 ALL LAKES CONVERGED AFTER   2  ITERATIONS
 ALL LAKES CONVERGED AFTER   1  ITERATIONS
 ALL LAKES CONVERGED AFTER   1  ITERATIONS
    20 ITERATIONS FOR TIME STEP  90 IN STRESS PERIOD    1

 MAXIMUM HEAD CHANGE FOR EACH ITERATION:

    HEAD CHANGE   HEAD CHANGE   HEAD CHANGE   HEAD CHANGE   HEAD CHANGE
  LAYER,ROW,COL LAYER,ROW,COL LAYER,ROW,COL LAYER,ROW,COL LAYER,ROW,COL
 ----------------------------------------------------------------------
     0.6349E-03    0.6863E-03    0.6850E-03    0.5092E-03    0.6887E-03
  (  3, 10,  8) (  2, 10, 12) (  5, 10,  8) (  2,  7,  9) (  3, 10,  8)
     0.3992E-03    0.3748E-03    0.3260E-03    0.4457E-03    0.2709E-03
  (  2,  7,  7) (  5,  9,  7) (  3,  8, 10) (  3, 10,  8) (  3,  8, 10)
     0.3374E-03    0.2245E-03    0.2567E-03    0.1713E-03    0.2393E-03
  (  3,  8,  8) (  5,  9,  9) (  5, 10,  8) (  3,  8, 10) (  3, 10,  8)
     0.1296E-03    0.1368E-03    0.1024E-03    0.1535E-03    0.9031E-04
  (  3,  9, 10) (  5,  9,  7) (  3,  8, 10) (  5, 10,  8) (  3,  8, 10)


 HEAD/DRAWDOWN PRINTOUT FLAG = 1     TOTAL BUDGET PRINTOUT FLAG = 1
 CELL-BY-CELL FLOW TERM FLAG = 1

 OUTPUT FLAGS FOR EACH LAYER:
          HEAD    DRAWDOWN  HEAD  DRAWDOWN
 LAYER  PRINTOUT  PRINTOUT  SAVE    SAVE
 -----------------------------------------
    1       0         0       0       0
    2       0         0       0       0
    3       0         0       0       0
    4       0         0       0       0
    5       1         0       0       0


     0  LAKE CELLS ARE DRY.

 PERIOD     1     TIME STEP    90     TIME STEP LENGTH  9.3306E+01
 PERIOD TIME  3.9579E+03     TOTAL SIMULATION TIME  3.9579E+03


                 HYDROLOGIC BUDGET SUMMARIES FOR SIMULATED LAKES
     (ALL FLUID FLUXES ARE VOLUMES ADDED TO THE LAKE DURING PRESENT TIME STEP)
     -------------------------------------------------------------------------
 LAKE   STAGE     PRECIP       EVAP       RUNOFF
   1   148.26  6.7646E+06  6.0065E+06  0.0000E+00

            GROUND WATER            SURFACE WATER
 LAKE    INFLOW     OUTFLOW      INFLOW     OUTFLOW
   1  1.5881E+06  2.3126E+06  0.0000E+00  0.0000E+00

         WATER    CONNECTED LAKE   UPDATED     TIME-STEP          STAGE CHANGE
 LAKE     USE         INFLUX        VOLUME    SURFACE AREA   TIME STEP  CUMULATIVE
   1   0.0000E+00   0.0000E+00   2.8037E+08    6.2500E+06   5.0585E-03  3.8259E+01
 --------------------------------------------------------------------------------



            CUMULATIVE HYDROLOGIC BUDGET SUMMARIES FOR SIMULATED LAKES
     (ALL FLUID FLUXES ARE SUMS OF VOLUMES ADDED TO THE LAKE SINCE INITIAL TIME)
     ---------------------------------------------------------------------------
 LAKE       PRECIP       EVAP       RUNOFF
   1     2.8695E+08  2.5479E+08  0.0000E+00

            GROUND WATER            SURFACE WATER
 LAKE    INFLOW     OUTFLOW      INFLOW     OUTFLOW
   1  2.5919E+08  5.2091E+07  0.0000E+00  0.0000E+00

         WATER    CONNECTED LAKE
 LAKE     USE         INFLUX
   1   0.0000E+00   0.0000E+00
 --------------------------------------------------------------------------------

1
              HEAD IN LAYER   5 AT END OF TIME STEP  90 IN STRESS PERIOD    1
  ---------------------------------------------------------------------------

          1      2      3      4      5      6      7      8      9     10
 .........................................................................
   1   160.0  158.9  157.3  155.8  154.2  152.7  151.5  150.8  150.0  149.2
   2   160.0  158.6  156.7  155.1  153.4  151.9  150.7  149.9  149.1  148.4
   3   160.0  158.4  156.3  154.5  152.8  151.1  150.0  149.2  148.4  147.6
   4   160.0  158.3  156.1  154.2  152.4  150.8  149.6  148.8  148.0  147.3
   5   160.0  158.2  155.9  154.0  152.2  150.5  149.4  148.6  147.9  147.2
   6   160.0  158.2  155.9  153.9  152.0  150.3  149.1  148.5  148.0  147.5
   7   160.0  158.2  155.9  153.8  152.0  150.1  148.3  148.3  148.3  148.2
   8   160.0  158.2  155.8  153.8  151.9  150.0  148.3  148.3  148.3  148.3
   9   160.0  158.2  155.8  153.8  151.9  150.0  148.3  148.3  148.3  148.3
  10   160.0  158.2  155.8  153.8  151.9  150.0  148.3  148.3  148.3  148.3
  11   160.0  158.2  155.9  153.8  152.0  150.1  148.3  148.3  148.3  148.2
  12   160.0  158.2  155.9  153.9  152.0  150.3  149.1  148.5  148.0  147.5
  13   160.0  158.2  155.9  154.0  152.2  150.5  149.4  148.6  147.9  147.2
  14   160.0  158.3  156.1  154.2  152.4  150.8  149.6  148.8  148.0  147.3
  15   160.0  158.4  156.3  154.5  152.8  151.1  150.0  149.2  148.4  147.6
  16   160.0  158.6  156.7  155.1  153.4  151.9  150.7  149.9  149.1  148.4
  17   160.0  158.9  157.3  155.8  154.2  152.7  151.5  150.8  150.0  149.2
1
              HEAD IN LAYER   5 AT END OF TIME STEP  90 IN STRESS PERIOD    1
  ---------------------------------------------------------------------------

         11     12     13     14     15     16     17
 ....................................................
   1   148.5  147.3  145.8  144.2  142.7  141.1  140.0
   2   147.6  146.4  144.9  143.4  141.9  140.6  140.0
   3   146.9  145.7  144.2  142.7  141.4  140.3  140.0
   4   146.5  145.4  143.8  142.4  141.1  140.2  140.0
   5   146.5  145.3  143.7  142.3  141.0  140.1  140.0
   6   146.8  145.5  143.8  142.2  141.0  140.1  140.0
   7   148.1  145.9  143.9  142.3  141.0  140.1  140.0
   8   148.2  146.0  143.9  142.3  141.0  140.1  140.0
   9   148.2  146.0  143.9  142.3  141.0  140.1  140.0
  10   148.2  146.0  143.9  142.3  141.0  140.1  140.0
  11   148.1  145.9  143.9  142.3  141.0  140.1  140.0
  12   146.8  145.5  143.8  142.2  141.0  140.1  140.0
  13   146.5  145.3  143.7  142.3  141.0  140.1  140.0
  14   146.5  145.4  143.8  142.4  141.1  140.2  140.0
  15   146.9  145.7  144.2  142.7  141.4  140.3  140.0
  16   147.6  146.4  144.9  143.4  141.9  140.6  140.0
  17   148.5  147.3  145.8  144.2  142.7  141.1  140.0
1
  VOLUMETRIC BUDGET FOR ENTIRE MODEL AT END OF TIME STEP 90 IN STRESS PERIOD   1
  ------------------------------------------------------------------------------

     CUMULATIVE VOLUMES      L**3       RATES FOR THIS TIME STEP      L**3/T
     ------------------                 ------------------------

           IN:                                      IN:
           ---                                      ---
             STORAGE =       31346.7051               STORAGE =           0.0000
       CONSTANT HEAD =  1116727296.0000         CONSTANT HEAD =      166944.7656
                  ET =           0.0000                    ET =           0.0000
            RECHARGE =  6886742016.0000              RECHARGE =     1740000.0000
     SPECIFIED FLOWS =           0.0000       SPECIFIED FLOWS =           0.0000
       LAKE  SEEPAGE =    52090956.0000         LAKE  SEEPAGE =       24784.9355

            TOTAL IN =  8055591424.0000              TOTAL IN =     1931729.7500

          OUT:                                     OUT:
          ----                                     ----
             STORAGE =  1011605184.0000               STORAGE =         217.6494
       CONSTANT HEAD =    28506036.0000         CONSTANT HEAD =        9471.3975
                  ET =  6756236288.0000                    ET =     1904980.7500
            RECHARGE =           0.0000              RECHARGE =           0.0000
     SPECIFIED FLOWS =           0.0000       SPECIFIED FLOWS =           0.0000
       LAKE  SEEPAGE =   259188304.0000         LAKE  SEEPAGE =       17020.8418

           TOTAL OUT =  8055535616.0000             TOTAL OUT =     1931690.6250

            IN - OUT =       55808.0000              IN - OUT =          39.1250

 PERCENT DISCREPANCY =           0.00     PERCENT DISCREPANCY =           0.00






          TIME SUMMARY AT END OF TIME STEP  90 IN STRESS PERIOD    1
                    SECONDS     MINUTES      HOURS       DAYS        YEARS
                    -----------------------------------------------------------
   TIME STEP LENGTH 8.06160E+06 1.34360E+05  2239.3      93.306     0.25546    
 STRESS PERIOD TIME 3.41962E+08 5.69937E+06  94990.      3957.9      10.836    
         TOTAL TIME 3.41962E+08 5.69937E+06  94990.      3957.9      10.836    
1
 
 SOLVING FOR HEAD 
 ALL LAKES CONVERGED AFTER   2  ITERATIONS
 ALL LAKES CONVERGED AFTER   2  ITERATIONS
 ALL LAKES CONVERGED AFTER   2  ITERATIONS
 ALL LAKES CONVERGED AFTER   2  ITERATIONS
 ALL LAKES CONVERGED AFTER   2  ITERATIONS
 ALL LAKES CONVERGED AFTER   2  ITERATIONS
 ALL LAKES CONVERGED AFTER   2  ITERATIONS
 ALL LAKES CONVERGED AFTER   2  ITERATIONS
 ALL LAKES CONVERGED AFTER   2  ITERATIONS
 ALL LAKES CONVERGED AFTER   2  ITERATIONS
 ALL LAKES CONVERGED AFTER   1  ITERATIONS
 ALL LAKES CONVERGED AFTER   2  ITERATIONS
 ALL LAKES CONVERGED AFTER   2  ITERATIONS
 ALL LAKES CONVERGED AFTER   2  ITERATIONS
 ALL LAKES CONVERGED AFTER   1  ITERATIONS
 ALL LAKES CONVERGED AFTER   2  ITERATIONS
 ALL LAKES CONVERGED AFTER   2  ITERATIONS
 ALL LAKES CONVERGED AFTER   1  ITERATIONS
    18 ITERATIONS FOR TIME STEP  91 IN STRESS PERIOD    1

 MAXIMUM HEAD CHANGE FOR EACH ITERATION:

    HEAD CHANGE   HEAD CHANGE   HEAD CHANGE   HEAD CHANGE   HEAD CHANGE
  LAYER,ROW,COL LAYER,ROW,COL LAYER,ROW,COL LAYER,ROW,COL LAYER,ROW,COL
 ----------------------------------------------------------------------
     0.5713E-03    0.5735E-03    0.6022E-03    0.4473E-03    0.5991E-03
  (  3,  8,  8) (  2, 10, 12) (  5, 10,  8) (  2,  9, 11) (  3, 10,  8)
     0.3515E-03    0.3263E-03    0.2853E-03    0.3991E-03    0.2408E-03
  (  2,  7,  7) (  5, 10,  8) (  3,  8, 10) (  3, 10,  8) (  3,  8, 10)
     0.2988E-03    0.1923E-03    0.2332E-03    0.1512E-03    0.2094E-03
  (  2,  7,  7) (  5,  9,  9) (  5, 10,  8) (  3,  8, 10) (  3, 10,  8)
     0.1296E-03    0.1179E-03    0.9191E-04
  (  3,  9, 10) (  5,  8,  7) (  3,  8, 10)


 HEAD/DRAWDOWN PRINTOUT FLAG = 0     TOTAL BUDGET PRINTOUT FLAG = 0
 CELL-BY-CELL FLOW TERM FLAG = 1

 OUTPUT FLAGS FOR ALL LAYERS ARE THE SAME:
   HEAD    DRAWDOWN  HEAD  DRAWDOWN
 PRINTOUT  PRINTOUT  SAVE    SAVE
 ----------------------------------
     0         0       0       0


     0  LAKE CELLS ARE DRY.

 PERIOD     1     TIME STEP    91     TIME STEP LENGTH  9.5172E+01
 PERIOD TIME  4.0531E+03     TOTAL SIMULATION TIME  4.0531E+03


                 HYDROLOGIC BUDGET SUMMARIES FOR SIMULATED LAKES
     (ALL FLUID FLUXES ARE VOLUMES ADDED TO THE LAKE DURING PRESENT TIME STEP)
     -------------------------------------------------------------------------
 LAKE   STAGE     PRECIP       EVAP       RUNOFF
   1   148.26  6.8999E+06  6.1267E+06  0.0000E+00

            GROUND WATER            SURFACE WATER
 LAKE    INFLOW     OUTFLOW      INFLOW     OUTFLOW
   1  1.6180E+06  2.3611E+06  0.0000E+00  0.0000E+00

         WATER    CONNECTED LAKE   UPDATED     TIME-STEP          STAGE CHANGE
 LAKE     USE         INFLUX        VOLUME    SURFACE AREA   TIME STEP  CUMULATIVE
   1   0.0000E+00   0.0000E+00   2.8039E+08    6.2500E+06   4.2995E-03  3.8263E+01
 --------------------------------------------------------------------------------



            CUMULATIVE HYDROLOGIC BUDGET SUMMARIES FOR SIMULATED LAKES
     (ALL FLUID FLUXES ARE SUMS OF VOLUMES ADDED TO THE LAKE SINCE INITIAL TIME)
     ---------------------------------------------------------------------------
 LAKE       PRECIP       EVAP       RUNOFF
   1     2.9385E+08  2.6092E+08  0.0000E+00

            GROUND WATER            SURFACE WATER
 LAKE    INFLOW     OUTFLOW      INFLOW     OUTFLOW
   1  2.6081E+08  5.4452E+07  0.0000E+00  0.0000E+00

         WATER    CONNECTED LAKE
 LAKE     USE         INFLUX
   1   0.0000E+00   0.0000E+00
 --------------------------------------------------------------------------------

 
 SOLVING FOR HEAD 
 ALL LAKES CONVERGED AFTER   2  ITERATIONS
 ALL LAKES CONVERGED AFTER   2  ITERATIONS
 ALL LAKES CONVERGED AFTER   2  ITERATIONS
 ALL LAKES CONVERGED AFTER   2  ITERATIONS
 ALL LAKES CONVERGED AFTER   2  ITERATIONS
 ALL LAKES CONVERGED AFTER   2  ITERATIONS
 ALL LAKES CONVERGED AFTER   2  ITERATIONS
 ALL LAKES CONVERGED AFTER   2  ITERATIONS
 ALL LAKES CONVERGED AFTER   2  ITERATIONS
 ALL LAKES CONVERGED AFTER   2  ITERATIONS
 ALL LAKES CONVERGED AFTER   1  ITERATIONS
 ALL LAKES CONVERGED AFTER   2  ITERATIONS
 ALL LAKES CONVERGED AFTER   2  ITERATIONS
 ALL LAKES CONVERGED AFTER   2  ITERATIONS
 ALL LAKES CONVERGED AFTER   1  ITERATIONS
 ALL LAKES CONVERGED AFTER   2  ITERATIONS
 ALL LAKES CONVERGED AFTER   1  ITERATIONS
 ALL LAKES CONVERGED AFTER   1  ITERATIONS
    18 ITERATIONS FOR TIME STEP  92 IN STRESS PERIOD    1

 MAXIMUM HEAD CHANGE FOR EACH ITERATION:

    HEAD CHANGE   HEAD CHANGE   HEAD CHANGE   HEAD CHANGE   HEAD CHANGE
  LAYER,ROW,COL LAYER,ROW,COL LAYER,ROW,COL LAYER,ROW,COL LAYER,ROW,COL
 ----------------------------------------------------------------------
     0.4865E-03    0.4859E-03    0.5066E-03    0.3630E-03    0.5088E-03
  (  3, 10,  8) (  2, 10, 12) (  5, 10,  8) (  3,  8, 10) (  3, 10,  8)
     0.2964E-03    0.2817E-03    0.2346E-03    0.3329E-03    0.1982E-03
  (  3,  9, 10) (  5, 10,  8) (  3,  8, 10) (  3, 10,  8) (  2,  8, 11)
     0.2531E-03    0.1615E-03    0.1894E-03    0.1310E-03    0.1794E-03
  (  3,  8,  8) (  5,  9,  9) (  5, 10,  8) (  3,  8, 10) (  3, 10,  8)
     0.1144E-03    0.1017E-03    0.9917E-04
  (  2,  7,  7) (  5, 10,  8) (  2,  9, 11)


 HEAD/DRAWDOWN PRINTOUT FLAG = 0     TOTAL BUDGET PRINTOUT FLAG = 0
 CELL-BY-CELL FLOW TERM FLAG = 1

 OUTPUT FLAGS FOR ALL LAYERS ARE THE SAME:
   HEAD    DRAWDOWN  HEAD  DRAWDOWN
 PRINTOUT  PRINTOUT  SAVE    SAVE
 ----------------------------------
     0         0       0       0


     0  LAKE CELLS ARE DRY.

 PERIOD     1     TIME STEP    92     TIME STEP LENGTH  9.7075E+01
 PERIOD TIME  4.1501E+03     TOTAL SIMULATION TIME  4.1501E+03


                 HYDROLOGIC BUDGET SUMMARIES FOR SIMULATED LAKES
     (ALL FLUID FLUXES ARE VOLUMES ADDED TO THE LAKE DURING PRESENT TIME STEP)
     -------------------------------------------------------------------------
 LAKE   STAGE     PRECIP       EVAP       RUNOFF
   1   148.27  7.0379E+06  6.2492E+06  0.0000E+00

            GROUND WATER            SURFACE WATER
 LAKE    INFLOW     OUTFLOW      INFLOW     OUTFLOW
   1  1.6480E+06  2.4110E+06  0.0000E+00  0.0000E+00

         WATER    CONNECTED LAKE   UPDATED     TIME-STEP          STAGE CHANGE
 LAKE     USE         INFLUX        VOLUME    SURFACE AREA   TIME STEP  CUMULATIVE
   1   0.0000E+00   0.0000E+00   2.8042E+08    6.2500E+06   3.6817E-03  3.8267E+01
 --------------------------------------------------------------------------------



            CUMULATIVE HYDROLOGIC BUDGET SUMMARIES FOR SIMULATED LAKES
     (ALL FLUID FLUXES ARE SUMS OF VOLUMES ADDED TO THE LAKE SINCE INITIAL TIME)
     ---------------------------------------------------------------------------
 LAKE       PRECIP       EVAP       RUNOFF
   1     3.0089E+08  2.6717E+08  0.0000E+00

            GROUND WATER            SURFACE WATER
 LAKE    INFLOW     OUTFLOW      INFLOW     OUTFLOW
   1  2.6245E+08  5.6863E+07  0.0000E+00  0.0000E+00

         WATER    CONNECTED LAKE
 LAKE     USE         INFLUX
   1   0.0000E+00   0.0000E+00
 --------------------------------------------------------------------------------

 
 SOLVING FOR HEAD 
 ALL LAKES CONVERGED AFTER   2  ITERATIONS
 ALL LAKES CONVERGED AFTER   2  ITERATIONS
 ALL LAKES CONVERGED AFTER   2  ITERATIONS
 ALL LAKES CONVERGED AFTER   2  ITERATIONS
 ALL LAKES CONVERGED AFTER   2  ITERATIONS
 ALL LAKES CONVERGED AFTER   2  ITERATIONS
 ALL LAKES CONVERGED AFTER   2  ITERATIONS
 ALL LAKES CONVERGED AFTER   2  ITERATIONS
 ALL LAKES CONVERGED AFTER   2  ITERATIONS
 ALL LAKES CONVERGED AFTER   2  ITERATIONS
 ALL LAKES CONVERGED AFTER   1  ITERATIONS
 ALL LAKES CONVERGED AFTER   2  ITERATIONS
 ALL LAKES CONVERGED AFTER   2  ITERATIONS
 ALL LAKES CONVERGED AFTER   2  ITERATIONS
 ALL LAKES CONVERGED AFTER   1  ITERATIONS
 ALL LAKES CONVERGED AFTER   2  ITERATIONS
    16 ITERATIONS FOR TIME STEP  93 IN STRESS PERIOD    1

 MAXIMUM HEAD CHANGE FOR EACH ITERATION:

    HEAD CHANGE   HEAD CHANGE   HEAD CHANGE   HEAD CHANGE   HEAD CHANGE
  LAYER,ROW,COL LAYER,ROW,COL LAYER,ROW,COL LAYER,ROW,COL LAYER,ROW,COL
 ----------------------------------------------------------------------
     0.4230E-03    0.4111E-03    0.4474E-03    0.3197E-03    0.4492E-03
  (  3, 10,  8) (  2, 10, 12) (  5, 10,  8) (  2,  7, 10) (  3, 10,  8)
     0.2572E-03    0.2366E-03    0.2138E-03    0.2941E-03    0.1806E-03
  (  2,  7,  7) (  5, 10,  8) (  3,  8, 10) (  3, 10,  8) (  3,  8, 10)
     0.2248E-03    0.1496E-03    0.1647E-03    0.1209E-03    0.1695E-03
  (  3,  8,  8) (  5,  9,  9) (  5, 10,  8) (  3,  8, 10) (  3, 10,  8)
     0.9882E-04
  (  2,  7, 11)


 HEAD/DRAWDOWN PRINTOUT FLAG = 0     TOTAL BUDGET PRINTOUT FLAG = 0
 CELL-BY-CELL FLOW TERM FLAG = 1

 OUTPUT FLAGS FOR ALL LAYERS ARE THE SAME:
   HEAD    DRAWDOWN  HEAD  DRAWDOWN
 PRINTOUT  PRINTOUT  SAVE    SAVE
 ----------------------------------
     0         0       0       0


     0  LAKE CELLS ARE DRY.

 PERIOD     1     TIME STEP    93     TIME STEP LENGTH  9.9017E+01
 PERIOD TIME  4.2492E+03     TOTAL SIMULATION TIME  4.2492E+03


                 HYDROLOGIC BUDGET SUMMARIES FOR SIMULATED LAKES
     (ALL FLUID FLUXES ARE VOLUMES ADDED TO THE LAKE DURING PRESENT TIME STEP)
     -------------------------------------------------------------------------
 LAKE   STAGE     PRECIP       EVAP       RUNOFF
   1   148.27  7.1787E+06  6.3742E+06  0.0000E+00

            GROUND WATER            SURFACE WATER
 LAKE    INFLOW     OUTFLOW      INFLOW     OUTFLOW
   1  1.6806E+06  2.4607E+06  0.0000E+00  0.0000E+00

         WATER    CONNECTED LAKE   UPDATED     TIME-STEP          STAGE CHANGE
 LAKE     USE         INFLUX        VOLUME    SURFACE AREA   TIME STEP  CUMULATIVE
   1   0.0000E+00   0.0000E+00   2.8044E+08    6.2500E+06   3.0887E-03  3.8270E+01
 --------------------------------------------------------------------------------



            CUMULATIVE HYDROLOGIC BUDGET SUMMARIES FOR SIMULATED LAKES
     (ALL FLUID FLUXES ARE SUMS OF VOLUMES ADDED TO THE LAKE SINCE INITIAL TIME)
     ---------------------------------------------------------------------------
 LAKE       PRECIP       EVAP       RUNOFF
   1     3.0806E+08  2.7354E+08  0.0000E+00

            GROUND WATER            SURFACE WATER
 LAKE    INFLOW     OUTFLOW      INFLOW     OUTFLOW
   1  2.6413E+08  5.9324E+07  0.0000E+00  0.0000E+00

         WATER    CONNECTED LAKE
 LAKE     USE         INFLUX
   1   0.0000E+00   0.0000E+00
 --------------------------------------------------------------------------------

 
 SOLVING FOR HEAD 
 ALL LAKES CONVERGED AFTER   2  ITERATIONS
 ALL LAKES CONVERGED AFTER   2  ITERATIONS
 ALL LAKES CONVERGED AFTER   2  ITERATIONS
 ALL LAKES CONVERGED AFTER   2  ITERATIONS
 ALL LAKES CONVERGED AFTER   2  ITERATIONS
 ALL LAKES CONVERGED AFTER   2  ITERATIONS
 ALL LAKES CONVERGED AFTER   2  ITERATIONS
 ALL LAKES CONVERGED AFTER   2  ITERATIONS
 ALL LAKES CONVERGED AFTER   1  ITERATIONS
 ALL LAKES CONVERGED AFTER   2  ITERATIONS
 ALL LAKES CONVERGED AFTER   1  ITERATIONS
 ALL LAKES CONVERGED AFTER   2  ITERATIONS
 ALL LAKES CONVERGED AFTER   1  ITERATIONS
 ALL LAKES CONVERGED AFTER   2  ITERATIONS
 ALL LAKES CONVERGED AFTER   1  ITERATIONS
 ALL LAKES CONVERGED AFTER   1  ITERATIONS
    16 ITERATIONS FOR TIME STEP  94 IN STRESS PERIOD    1

 MAXIMUM HEAD CHANGE FOR EACH ITERATION:

    HEAD CHANGE   HEAD CHANGE   HEAD CHANGE   HEAD CHANGE   HEAD CHANGE
  LAYER,ROW,COL LAYER,ROW,COL LAYER,ROW,COL LAYER,ROW,COL LAYER,ROW,COL
 ----------------------------------------------------------------------
     0.3374E-03    0.3511E-03    0.3851E-03    0.2722E-03    0.3892E-03
  (  3, 10,  8) (  2, 10, 12) (  5, 10,  8) (  3,  8, 10) (  3, 10,  8)
     0.2283E-03    0.2234E-03    0.1837E-03    0.2567E-03    0.1505E-03
  (  2,  7,  7) (  5, 10,  8) (  3,  8, 10) (  3, 10,  8) (  3,  8, 10)
     0.1966E-03    0.1288E-03    0.1458E-03    0.1008E-03    0.1497E-03
  (  3,  8,  8) (  5,  9,  9) (  5, 10,  8) (  3,  8, 10) (  3, 10,  8)
     0.8667E-04
  (  2,  7,  7)


 HEAD/DRAWDOWN PRINTOUT FLAG = 0     TOTAL BUDGET PRINTOUT FLAG = 0
 CELL-BY-CELL FLOW TERM FLAG = 1

 OUTPUT FLAGS FOR ALL LAYERS ARE THE SAME:
   HEAD    DRAWDOWN  HEAD  DRAWDOWN
 PRINTOUT  PRINTOUT  SAVE    SAVE
 ----------------------------------
     0         0       0       0


     0  LAKE CELLS ARE DRY.

 PERIOD     1     TIME STEP    94     TIME STEP LENGTH  1.0100E+02
 PERIOD TIME  4.3502E+03     TOTAL SIMULATION TIME  4.3502E+03


                 HYDROLOGIC BUDGET SUMMARIES FOR SIMULATED LAKES
     (ALL FLUID FLUXES ARE VOLUMES ADDED TO THE LAKE DURING PRESENT TIME STEP)
     -------------------------------------------------------------------------
 LAKE   STAGE     PRECIP       EVAP       RUNOFF
   1   148.27  7.3223E+06  6.5017E+06  0.0000E+00

            GROUND WATER            SURFACE WATER
 LAKE    INFLOW     OUTFLOW      INFLOW     OUTFLOW
   1  1.7127E+06  2.5117E+06  0.0000E+00  0.0000E+00

         WATER    CONNECTED LAKE   UPDATED     TIME-STEP          STAGE CHANGE
 LAKE     USE         INFLUX        VOLUME    SURFACE AREA   TIME STEP  CUMULATIVE
   1   0.0000E+00   0.0000E+00   2.8045E+08    6.2500E+06   2.7128E-03  3.8273E+01
 --------------------------------------------------------------------------------



            CUMULATIVE HYDROLOGIC BUDGET SUMMARIES FOR SIMULATED LAKES
     (ALL FLUID FLUXES ARE SUMS OF VOLUMES ADDED TO THE LAKE SINCE INITIAL TIME)
     ---------------------------------------------------------------------------
 LAKE       PRECIP       EVAP       RUNOFF
   1     3.1539E+08  2.8004E+08  0.0000E+00

            GROUND WATER            SURFACE WATER
 LAKE    INFLOW     OUTFLOW      INFLOW     OUTFLOW
   1  2.6585E+08  6.1835E+07  0.0000E+00  0.0000E+00

         WATER    CONNECTED LAKE
 LAKE     USE         INFLUX
   1   0.0000E+00   0.0000E+00
 --------------------------------------------------------------------------------

 
 SOLVING FOR HEAD 
 ALL LAKES CONVERGED AFTER   2  ITERATIONS
 ALL LAKES CONVERGED AFTER   2  ITERATIONS
 ALL LAKES CONVERGED AFTER   2  ITERATIONS
 ALL LAKES CONVERGED AFTER   2  ITERATIONS
 ALL LAKES CONVERGED AFTER   1  ITERATIONS
 ALL LAKES CONVERGED AFTER   2  ITERATIONS
 ALL LAKES CONVERGED AFTER   2  ITERATIONS
 ALL LAKES CONVERGED AFTER   2  ITERATIONS
 ALL LAKES CONVERGED AFTER   1  ITERATIONS
 ALL LAKES CONVERGED AFTER   2  ITERATIONS
 ALL LAKES CONVERGED AFTER   1  ITERATIONS
 ALL LAKES CONVERGED AFTER   2  ITERATIONS
 ALL LAKES CONVERGED AFTER   1  ITERATIONS
 ALL LAKES CONVERGED AFTER   1  ITERATIONS
    14 ITERATIONS FOR TIME STEP  95 IN STRESS PERIOD    1

 MAXIMUM HEAD CHANGE FOR EACH ITERATION:

    HEAD CHANGE   HEAD CHANGE   HEAD CHANGE   HEAD CHANGE   HEAD CHANGE
  LAYER,ROW,COL LAYER,ROW,COL LAYER,ROW,COL LAYER,ROW,COL LAYER,ROW,COL
 ----------------------------------------------------------------------
     0.2978E-03    0.3040E-03    0.3234E-03    0.2419E-03    0.3290E-03
  (  3, 10,  8) (  2, 10, 12) (  5, 10,  8) (  3,  8, 10) (  3, 10,  8)
     0.1852E-03    0.1811E-03    0.1595E-03    0.2193E-03    0.1304E-03
  (  3,  9, 10) (  5,  8,  7) (  2,  9, 11) (  3, 10,  8) (  3,  8, 10)
     0.1685E-03    0.1076E-03    0.1366E-03    0.9071E-04
  (  3,  8,  8) (  5,  9,  9) (  5, 10,  8) (  3,  8, 10)


 HEAD/DRAWDOWN PRINTOUT FLAG = 0     TOTAL BUDGET PRINTOUT FLAG = 0
 CELL-BY-CELL FLOW TERM FLAG = 1

 OUTPUT FLAGS FOR ALL LAYERS ARE THE SAME:
   HEAD    DRAWDOWN  HEAD  DRAWDOWN
 PRINTOUT  PRINTOUT  SAVE    SAVE
 ----------------------------------
     0         0       0       0


     0  LAKE CELLS ARE DRY.

 PERIOD     1     TIME STEP    95     TIME STEP LENGTH  1.0302E+02
 PERIOD TIME  4.4532E+03     TOTAL SIMULATION TIME  4.4532E+03


                 HYDROLOGIC BUDGET SUMMARIES FOR SIMULATED LAKES
     (ALL FLUID FLUXES ARE VOLUMES ADDED TO THE LAKE DURING PRESENT TIME STEP)
     -------------------------------------------------------------------------
 LAKE   STAGE     PRECIP       EVAP       RUNOFF
   1   148.27  7.4687E+06  6.6317E+06  0.0000E+00

            GROUND WATER            SURFACE WATER
 LAKE    INFLOW     OUTFLOW      INFLOW     OUTFLOW
   1  1.7437E+06  2.5649E+06  0.0000E+00  0.0000E+00

         WATER    CONNECTED LAKE   UPDATED     TIME-STEP          STAGE CHANGE
 LAKE     USE         INFLUX        VOLUME    SURFACE AREA   TIME STEP  CUMULATIVE
   1   0.0000E+00   0.0000E+00   2.8047E+08    6.2500E+06   2.1740E-03  3.8275E+01
 --------------------------------------------------------------------------------



            CUMULATIVE HYDROLOGIC BUDGET SUMMARIES FOR SIMULATED LAKES
     (ALL FLUID FLUXES ARE SUMS OF VOLUMES ADDED TO THE LAKE SINCE INITIAL TIME)
     ---------------------------------------------------------------------------
 LAKE       PRECIP       EVAP       RUNOFF
   1     3.2286E+08  2.8667E+08  0.0000E+00

            GROUND WATER            SURFACE WATER
 LAKE    INFLOW     OUTFLOW      INFLOW     OUTFLOW
   1  2.6759E+08  6.4400E+07  0.0000E+00  0.0000E+00

         WATER    CONNECTED LAKE
 LAKE     USE         INFLUX
   1   0.0000E+00   0.0000E+00
 --------------------------------------------------------------------------------

 
 SOLVING FOR HEAD 
 ALL LAKES CONVERGED AFTER   2  ITERATIONS
 ALL LAKES CONVERGED AFTER   2  ITERATIONS
 ALL LAKES CONVERGED AFTER   2  ITERATIONS
 ALL LAKES CONVERGED AFTER   2  ITERATIONS
 ALL LAKES CONVERGED AFTER   1  ITERATIONS
 ALL LAKES CONVERGED AFTER   2  ITERATIONS
 ALL LAKES CONVERGED AFTER   2  ITERATIONS
 ALL LAKES CONVERGED AFTER   2  ITERATIONS
 ALL LAKES CONVERGED AFTER   1  ITERATIONS
 ALL LAKES CONVERGED AFTER   2  ITERATIONS
 ALL LAKES CONVERGED AFTER   1  ITERATIONS
 ALL LAKES CONVERGED AFTER   1  ITERATIONS
    12 ITERATIONS FOR TIME STEP  96 IN STRESS PERIOD    1

 MAXIMUM HEAD CHANGE FOR EACH ITERATION:

    HEAD CHANGE   HEAD CHANGE   HEAD CHANGE   HEAD CHANGE   HEAD CHANGE
  LAYER,ROW,COL LAYER,ROW,COL LAYER,ROW,COL LAYER,ROW,COL LAYER,ROW,COL
 ----------------------------------------------------------------------
     0.3073E-03    0.2522E-03    0.3011E-03    0.2118E-03    0.2994E-03
  (  3,  8,  8) (  4, 10, 11) (  5, 10,  8) (  3,  8, 10) (  3, 10,  8)
     0.1718E-03    0.1701E-03    0.1527E-03    0.2086E-03    0.1204E-03
  (  2,  7,  7) (  5,  9,  7) (  3,  8, 10) (  3, 10,  8) (  3,  8, 10)
     0.1592E-03    0.9741E-04
  (  3,  8,  8) (  5,  9,  9)


 HEAD/DRAWDOWN PRINTOUT FLAG = 0     TOTAL BUDGET PRINTOUT FLAG = 0
 CELL-BY-CELL FLOW TERM FLAG = 1

 OUTPUT FLAGS FOR ALL LAYERS ARE THE SAME:
   HEAD    DRAWDOWN  HEAD  DRAWDOWN
 PRINTOUT  PRINTOUT  SAVE    SAVE
 ----------------------------------
     0         0       0       0


     0  LAKE CELLS ARE DRY.

 PERIOD     1     TIME STEP    96     TIME STEP LENGTH  1.0508E+02
 PERIOD TIME  4.5583E+03     TOTAL SIMULATION TIME  4.5583E+03


                 HYDROLOGIC BUDGET SUMMARIES FOR SIMULATED LAKES
     (ALL FLUID FLUXES ARE VOLUMES ADDED TO THE LAKE DURING PRESENT TIME STEP)
     -------------------------------------------------------------------------
 LAKE   STAGE     PRECIP       EVAP       RUNOFF
   1   148.28  7.6181E+06  6.7643E+06  0.0000E+00

            GROUND WATER            SURFACE WATER
 LAKE    INFLOW     OUTFLOW      INFLOW     OUTFLOW
   1  1.7791E+06  2.6162E+06  0.0000E+00  0.0000E+00

         WATER    CONNECTED LAKE   UPDATED     TIME-STEP          STAGE CHANGE
 LAKE     USE         INFLUX        VOLUME    SURFACE AREA   TIME STEP  CUMULATIVE
   1   0.0000E+00   0.0000E+00   2.8048E+08    6.2500E+06   1.7873E-03  3.8276E+01
 --------------------------------------------------------------------------------



            CUMULATIVE HYDROLOGIC BUDGET SUMMARIES FOR SIMULATED LAKES
     (ALL FLUID FLUXES ARE SUMS OF VOLUMES ADDED TO THE LAKE SINCE INITIAL TIME)
     ---------------------------------------------------------------------------
 LAKE       PRECIP       EVAP       RUNOFF
   1     3.3047E+08  2.9344E+08  0.0000E+00

            GROUND WATER            SURFACE WATER
 LAKE    INFLOW     OUTFLOW      INFLOW     OUTFLOW
   1  2.6937E+08  6.7016E+07  0.0000E+00  0.0000E+00

         WATER    CONNECTED LAKE
 LAKE     USE         INFLUX
   1   0.0000E+00   0.0000E+00
 --------------------------------------------------------------------------------

 
 SOLVING FOR HEAD 
 ALL LAKES CONVERGED AFTER   2  ITERATIONS
 ALL LAKES CONVERGED AFTER   2  ITERATIONS
 ALL LAKES CONVERGED AFTER   2  ITERATIONS
 ALL LAKES CONVERGED AFTER   2  ITERATIONS
 ALL LAKES CONVERGED AFTER   1  ITERATIONS
 ALL LAKES CONVERGED AFTER   2  ITERATIONS
 ALL LAKES CONVERGED AFTER   2  ITERATIONS
 ALL LAKES CONVERGED AFTER   2  ITERATIONS
 ALL LAKES CONVERGED AFTER   1  ITERATIONS
 ALL LAKES CONVERGED AFTER   2  ITERATIONS
 ALL LAKES CONVERGED AFTER   1  ITERATIONS
 ALL LAKES CONVERGED AFTER   1  ITERATIONS
    12 ITERATIONS FOR TIME STEP  97 IN STRESS PERIOD    1

 MAXIMUM HEAD CHANGE FOR EACH ITERATION:

    HEAD CHANGE   HEAD CHANGE   HEAD CHANGE   HEAD CHANGE   HEAD CHANGE
  LAYER,ROW,COL LAYER,ROW,COL LAYER,ROW,COL LAYER,ROW,COL LAYER,ROW,COL
 ----------------------------------------------------------------------
     0.2441E-03    0.2107E-03    0.2562E-03    0.1815E-03    0.2497E-03
  (  3, 10,  8) (  4, 10, 11) (  5, 10,  8) (  3,  8, 10) (  3, 10,  8)
     0.1574E-03    0.1363E-03    0.1292E-03    0.1716E-03    0.1003E-03
  (  3,  9, 10) (  5, 10,  8) (  2,  9, 11) (  5, 10,  8) (  3,  8, 10)
     0.1403E-03    0.9631E-04
  (  3,  8,  8) (  5,  9,  9)


 HEAD/DRAWDOWN PRINTOUT FLAG = 0     TOTAL BUDGET PRINTOUT FLAG = 0
 CELL-BY-CELL FLOW TERM FLAG = 1

 OUTPUT FLAGS FOR ALL LAYERS ARE THE SAME:
   HEAD    DRAWDOWN  HEAD  DRAWDOWN
 PRINTOUT  PRINTOUT  SAVE    SAVE
 ----------------------------------
     0         0       0       0


     0  LAKE CELLS ARE DRY.

 PERIOD     1     TIME STEP    97     TIME STEP LENGTH  1.0718E+02
 PERIOD TIME  4.6654E+03     TOTAL SIMULATION TIME  4.6654E+03


                 HYDROLOGIC BUDGET SUMMARIES FOR SIMULATED LAKES
     (ALL FLUID FLUXES ARE VOLUMES ADDED TO THE LAKE DURING PRESENT TIME STEP)
     -------------------------------------------------------------------------
 LAKE   STAGE     PRECIP       EVAP       RUNOFF
   1   148.28  7.7705E+06  6.8996E+06  0.0000E+00

            GROUND WATER            SURFACE WATER
 LAKE    INFLOW     OUTFLOW      INFLOW     OUTFLOW
   1  1.8136E+06  2.6698E+06  0.0000E+00  0.0000E+00

         WATER    CONNECTED LAKE   UPDATED     TIME-STEP          STAGE CHANGE
 LAKE     USE         INFLUX        VOLUME    SURFACE AREA   TIME STEP  CUMULATIVE
   1   0.0000E+00   0.0000E+00   2.8049E+08    6.2500E+06   1.6055E-03  3.8278E+01
 --------------------------------------------------------------------------------



            CUMULATIVE HYDROLOGIC BUDGET SUMMARIES FOR SIMULATED LAKES
     (ALL FLUID FLUXES ARE SUMS OF VOLUMES ADDED TO THE LAKE SINCE INITIAL TIME)
     ---------------------------------------------------------------------------
 LAKE       PRECIP       EVAP       RUNOFF
   1     3.3824E+08  3.0034E+08  0.0000E+00

            GROUND WATER            SURFACE WATER
 LAKE    INFLOW     OUTFLOW      INFLOW     OUTFLOW
   1  2.7118E+08  6.9686E+07  0.0000E+00  0.0000E+00

         WATER    CONNECTED LAKE
 LAKE     USE         INFLUX
   1   0.0000E+00   0.0000E+00
 --------------------------------------------------------------------------------

 
 SOLVING FOR HEAD 
 ALL LAKES CONVERGED AFTER   2  ITERATIONS
 ALL LAKES CONVERGED AFTER   2  ITERATIONS
 ALL LAKES CONVERGED AFTER   2  ITERATIONS
 ALL LAKES CONVERGED AFTER   2  ITERATIONS
 ALL LAKES CONVERGED AFTER   1  ITERATIONS
 ALL LAKES CONVERGED AFTER   2  ITERATIONS
 ALL LAKES CONVERGED AFTER   2  ITERATIONS
 ALL LAKES CONVERGED AFTER   2  ITERATIONS
 ALL LAKES CONVERGED AFTER   1  ITERATIONS
 ALL LAKES CONVERGED AFTER   1  ITERATIONS
    10 ITERATIONS FOR TIME STEP  98 IN STRESS PERIOD    1

 MAXIMUM HEAD CHANGE FOR EACH ITERATION:

    HEAD CHANGE   HEAD CHANGE   HEAD CHANGE   HEAD CHANGE   HEAD CHANGE
  LAYER,ROW,COL LAYER,ROW,COL LAYER,ROW,COL LAYER,ROW,COL LAYER,ROW,COL
 ----------------------------------------------------------------------
     0.2156E-03    0.1863E-03    0.2264E-03    0.1694E-03    0.2201E-03
  (  3, 10,  8) (  2, 10, 12) (  5, 10,  8) (  2,  7,  9) (  5, 10,  8)
     0.1296E-03    0.1334E-03    0.1023E-03    0.1531E-03    0.9031E-04
  (  3,  9, 10) (  5, 10,  8) (  3,  8, 10) (  3, 10,  8) (  3,  8, 10)


 HEAD/DRAWDOWN PRINTOUT FLAG = 0     TOTAL BUDGET PRINTOUT FLAG = 0
 CELL-BY-CELL FLOW TERM FLAG = 1

 OUTPUT FLAGS FOR ALL LAYERS ARE THE SAME:
   HEAD    DRAWDOWN  HEAD  DRAWDOWN
 PRINTOUT  PRINTOUT  SAVE    SAVE
 ----------------------------------
     0         0       0       0


     0  LAKE CELLS ARE DRY.

 PERIOD     1     TIME STEP    98     TIME STEP LENGTH  1.0932E+02
 PERIOD TIME  4.7748E+03     TOTAL SIMULATION TIME  4.7748E+03


                 HYDROLOGIC BUDGET SUMMARIES FOR SIMULATED LAKES
     (ALL FLUID FLUXES ARE VOLUMES ADDED TO THE LAKE DURING PRESENT TIME STEP)
     -------------------------------------------------------------------------
 LAKE   STAGE     PRECIP       EVAP       RUNOFF
   1   148.28  7.9259E+06  7.0376E+06  0.0000E+00

            GROUND WATER            SURFACE WATER
 LAKE    INFLOW     OUTFLOW      INFLOW     OUTFLOW
   1  1.8474E+06  2.7254E+06  0.0000E+00  0.0000E+00

         WATER    CONNECTED LAKE   UPDATED     TIME-STEP          STAGE CHANGE
 LAKE     USE         INFLUX        VOLUME    SURFACE AREA   TIME STEP  CUMULATIVE
   1   0.0000E+00   0.0000E+00   2.8050E+08    6.2500E+06   1.2549E-03  3.8279E+01
 --------------------------------------------------------------------------------



            CUMULATIVE HYDROLOGIC BUDGET SUMMARIES FOR SIMULATED LAKES
     (ALL FLUID FLUXES ARE SUMS OF VOLUMES ADDED TO THE LAKE SINCE INITIAL TIME)
     ---------------------------------------------------------------------------
 LAKE       PRECIP       EVAP       RUNOFF
   1     3.4617E+08  3.0737E+08  0.0000E+00

            GROUND WATER            SURFACE WATER
 LAKE    INFLOW     OUTFLOW      INFLOW     OUTFLOW
   1  2.7303E+08  7.2412E+07  0.0000E+00  0.0000E+00

         WATER    CONNECTED LAKE
 LAKE     USE         INFLUX
   1   0.0000E+00   0.0000E+00
 --------------------------------------------------------------------------------

 
 SOLVING FOR HEAD 
 ALL LAKES CONVERGED AFTER   1  ITERATIONS
 ALL LAKES CONVERGED AFTER   2  ITERATIONS
 ALL LAKES CONVERGED AFTER   2  ITERATIONS
 ALL LAKES CONVERGED AFTER   2  ITERATIONS
 ALL LAKES CONVERGED AFTER   1  ITERATIONS
 ALL LAKES CONVERGED AFTER   2  ITERATIONS
 ALL LAKES CONVERGED AFTER   2  ITERATIONS
 ALL LAKES CONVERGED AFTER   1  ITERATIONS
 ALL LAKES CONVERGED AFTER   1  ITERATIONS
 ALL LAKES CONVERGED AFTER   1  ITERATIONS
    10 ITERATIONS FOR TIME STEP  99 IN STRESS PERIOD    1

 MAXIMUM HEAD CHANGE FOR EACH ITERATION:

    HEAD CHANGE   HEAD CHANGE   HEAD CHANGE   HEAD CHANGE   HEAD CHANGE
  LAYER,ROW,COL LAYER,ROW,COL LAYER,ROW,COL LAYER,ROW,COL LAYER,ROW,COL
 ----------------------------------------------------------------------
     0.2155E-03    0.1769E-03    0.2133E-03    0.1512E-03    0.2094E-03
  (  3,  8,  8) (  4,  7,  8) (  5, 10,  8) (  3,  8, 10) (  3, 10,  8)
     0.1330E-03    0.1226E-03    0.1020E-03    0.1426E-03    0.9030E-04
  (  2,  7,  7) (  5, 10,  8) (  3,  8, 10) (  3, 10,  8) (  3,  8, 10)


 HEAD/DRAWDOWN PRINTOUT FLAG = 0     TOTAL BUDGET PRINTOUT FLAG = 0
 CELL-BY-CELL FLOW TERM FLAG = 1

 OUTPUT FLAGS FOR ALL LAYERS ARE THE SAME:
   HEAD    DRAWDOWN  HEAD  DRAWDOWN
 PRINTOUT  PRINTOUT  SAVE    SAVE
 ----------------------------------
     0         0       0       0


     0  LAKE CELLS ARE DRY.

 PERIOD     1     TIME STEP    99     TIME STEP LENGTH  1.1151E+02
 PERIOD TIME  4.8863E+03     TOTAL SIMULATION TIME  4.8863E+03


                 HYDROLOGIC BUDGET SUMMARIES FOR SIMULATED LAKES
     (ALL FLUID FLUXES ARE VOLUMES ADDED TO THE LAKE DURING PRESENT TIME STEP)
     -------------------------------------------------------------------------
 LAKE   STAGE     PRECIP       EVAP       RUNOFF
   1   148.28  8.0844E+06  7.1784E+06  0.0000E+00

            GROUND WATER            SURFACE WATER
 LAKE    INFLOW     OUTFLOW      INFLOW     OUTFLOW
   1  1.8836E+06  2.7807E+06  0.0000E+00  0.0000E+00

         WATER    CONNECTED LAKE   UPDATED     TIME-STEP          STAGE CHANGE
 LAKE     USE         INFLUX        VOLUME    SURFACE AREA   TIME STEP  CUMULATIVE
   1   0.0000E+00   0.0000E+00   2.8050E+08    6.2500E+06   1.0943E-03  3.8280E+01
 --------------------------------------------------------------------------------



            CUMULATIVE HYDROLOGIC BUDGET SUMMARIES FOR SIMULATED LAKES
     (ALL FLUID FLUXES ARE SUMS OF VOLUMES ADDED TO THE LAKE SINCE INITIAL TIME)
     ---------------------------------------------------------------------------
 LAKE       PRECIP       EVAP       RUNOFF
   1     3.5425E+08  3.1455E+08  0.0000E+00

            GROUND WATER            SURFACE WATER
 LAKE    INFLOW     OUTFLOW      INFLOW     OUTFLOW
   1  2.7492E+08  7.5192E+07  0.0000E+00  0.0000E+00

         WATER    CONNECTED LAKE
 LAKE     USE         INFLUX
   1   0.0000E+00   0.0000E+00
 --------------------------------------------------------------------------------

 
 SOLVING FOR HEAD 
 ALL LAKES CONVERGED AFTER   2  ITERATIONS
 ALL LAKES CONVERGED AFTER   2  ITERATIONS
 ALL LAKES CONVERGED AFTER   2  ITERATIONS
 ALL LAKES CONVERGED AFTER   2  ITERATIONS
 ALL LAKES CONVERGED AFTER   1  ITERATIONS
 ALL LAKES CONVERGED AFTER   2  ITERATIONS
     6 ITERATIONS FOR TIME STEP 100 IN STRESS PERIOD    1

 MAXIMUM HEAD CHANGE FOR EACH ITERATION:

    HEAD CHANGE   HEAD CHANGE   HEAD CHANGE   HEAD CHANGE   HEAD CHANGE
  LAYER,ROW,COL LAYER,ROW,COL LAYER,ROW,COL LAYER,ROW,COL LAYER,ROW,COL
 ----------------------------------------------------------------------
     0.1864E-03    0.1489E-03    0.1633E-03    0.1209E-03    0.1696E-03
  (  3,  8,  8) (  5,  9,  9) (  5, 10,  8) (  3,  8, 10) (  3, 10,  8)
     0.9882E-04
  (  2,  7, 11)


 HEAD/DRAWDOWN PRINTOUT FLAG = 1     TOTAL BUDGET PRINTOUT FLAG = 1
 CELL-BY-CELL FLOW TERM FLAG = 1

 OUTPUT FLAGS FOR EACH LAYER:
          HEAD    DRAWDOWN  HEAD  DRAWDOWN
 LAYER  PRINTOUT  PRINTOUT  SAVE    SAVE
 -----------------------------------------
    1       0         0       0       0
    2       0         0       0       0
    3       0         0       0       0
    4       0         0       0       0
    5       1         0       0       0


     0  LAKE CELLS ARE DRY.

 PERIOD     1     TIME STEP   100     TIME STEP LENGTH  1.1374E+02
 PERIOD TIME  5.0000E+03     TOTAL SIMULATION TIME  5.0000E+03


                 HYDROLOGIC BUDGET SUMMARIES FOR SIMULATED LAKES
     (ALL FLUID FLUXES ARE VOLUMES ADDED TO THE LAKE DURING PRESENT TIME STEP)
     -------------------------------------------------------------------------
 LAKE   STAGE     PRECIP       EVAP       RUNOFF
   1   148.28  8.2461E+06  7.3219E+06  0.0000E+00

            GROUND WATER            SURFACE WATER
 LAKE    INFLOW     OUTFLOW      INFLOW     OUTFLOW
   1  1.9227E+06  2.8360E+06  0.0000E+00  0.0000E+00

         WATER    CONNECTED LAKE   UPDATED     TIME-STEP          STAGE CHANGE
 LAKE     USE         INFLUX        VOLUME    SURFACE AREA   TIME STEP  CUMULATIVE
   1   0.0000E+00   0.0000E+00   2.8051E+08    6.2500E+06   6.8400E-04  3.8281E+01
 --------------------------------------------------------------------------------



            CUMULATIVE HYDROLOGIC BUDGET SUMMARIES FOR SIMULATED LAKES
     (ALL FLUID FLUXES ARE SUMS OF VOLUMES ADDED TO THE LAKE SINCE INITIAL TIME)
     ---------------------------------------------------------------------------
 LAKE       PRECIP       EVAP       RUNOFF
   1     3.6250E+08  3.2187E+08  0.0000E+00

            GROUND WATER            SURFACE WATER
 LAKE    INFLOW     OUTFLOW      INFLOW     OUTFLOW
   1  2.7684E+08  7.8028E+07  0.0000E+00  0.0000E+00

         WATER    CONNECTED LAKE
 LAKE     USE         INFLUX
   1   0.0000E+00   0.0000E+00
 --------------------------------------------------------------------------------

1
              HEAD IN LAYER   5 AT END OF TIME STEP 100 IN STRESS PERIOD    1
  ---------------------------------------------------------------------------

          1      2      3      4      5      6      7      8      9     10
 .........................................................................
   1   160.0  158.9  157.3  155.8  154.2  152.7  151.5  150.8  150.0  149.2
   2   160.0  158.6  156.7  155.1  153.4  151.9  150.7  149.9  149.1  148.4
   3   160.0  158.4  156.3  154.5  152.8  151.1  150.0  149.2  148.4  147.6
   4   160.0  158.3  156.1  154.2  152.4  150.8  149.6  148.8  148.1  147.3
   5   160.0  158.2  155.9  154.0  152.2  150.5  149.4  148.6  147.9  147.2
   6   160.0  158.2  155.9  153.9  152.1  150.3  149.1  148.5  148.0  147.5
   7   160.0  158.2  155.9  153.8  152.0  150.1  148.4  148.3  148.3  148.3
   8   160.0  158.2  155.8  153.8  151.9  150.0  148.3  148.3  148.3  148.3
   9   160.0  158.2  155.8  153.8  151.9  150.0  148.3  148.3  148.3  148.3
  10   160.0  158.2  155.8  153.8  151.9  150.0  148.3  148.3  148.3  148.3
  11   160.0  158.2  155.9  153.8  152.0  150.1  148.4  148.3  148.3  148.3
  12   160.0  158.2  155.9  153.9  152.1  150.3  149.1  148.5  148.0  147.5
  13   160.0  158.2  155.9  154.0  152.2  150.5  149.4  148.6  147.9  147.2
  14   160.0  158.3  156.1  154.2  152.4  150.8  149.6  148.8  148.1  147.3
  15   160.0  158.4  156.3  154.5  152.8  151.1  150.0  149.2  148.4  147.6
  16   160.0  158.6  156.7  155.1  153.4  151.9  150.7  149.9  149.1  148.4
  17   160.0  158.9  157.3  155.8  154.2  152.7  151.5  150.8  150.0  149.2
1
              HEAD IN LAYER   5 AT END OF TIME STEP 100 IN STRESS PERIOD    1
  ---------------------------------------------------------------------------

         11     12     13     14     15     16     17
 ....................................................
   1   148.5  147.3  145.8  144.2  142.7  141.1  140.0
   2   147.6  146.4  144.9  143.4  141.9  140.6  140.0
   3   146.9  145.7  144.2  142.7  141.4  140.3  140.0
   4   146.5  145.4  143.8  142.4  141.1  140.2  140.0
   5   146.5  145.3  143.7  142.3  141.0  140.1  140.0
   6   146.8  145.5  143.8  142.2  141.0  140.1  140.0
   7   148.2  145.9  143.9  142.3  141.0  140.1  140.0
   8   148.2  146.0  143.9  142.3  141.0  140.1  140.0
   9   148.2  146.0  143.9  142.3  141.0  140.1  140.0
  10   148.2  146.0  143.9  142.3  141.0  140.1  140.0
  11   148.2  145.9  143.9  142.3  141.0  140.1  140.0
  12   146.8  145.5  143.8  142.2  141.0  140.1  140.0
  13   146.5  145.3  143.7  142.3  141.0  140.1  140.0
  14   146.5  145.4  143.8  142.4  141.1  140.2  140.0
  15   146.9  145.7  144.2  142.7  141.4  140.3  140.0
  16   147.6  146.4  144.9  143.4  141.9  140.6  140.0
  17   148.5  147.3  145.8  144.2  142.7  141.1  140.0
1
  VOLUMETRIC BUDGET FOR ENTIRE MODEL AT END OF TIME STEP100 IN STRESS PERIOD   1
  ------------------------------------------------------------------------------

     CUMULATIVE VOLUMES      L**3       RATES FOR THIS TIME STEP      L**3/T
     ------------------                 ------------------------

           IN:                                      IN:
           ---                                      ---
             STORAGE =       31357.4473               STORAGE =       6.0931E-02
       CONSTANT HEAD =  1290660992.0000         CONSTANT HEAD =      166890.5938
                  ET =           0.0000                    ET =           0.0000
            RECHARGE =  8700000256.0000              RECHARGE =     1740000.0000
     SPECIFIED FLOWS =           0.0000       SPECIFIED FLOWS =           0.0000
       LAKE  SEEPAGE =    78028376.0000         LAKE  SEEPAGE =       24934.2227

            TOTAL IN = 10068720640.0000              TOTAL IN =     1931824.8750

          OUT:                                     OUT:
          ----                                     ----
             STORAGE =  1011693888.0000               STORAGE =          25.2617
       CONSTANT HEAD =    38388492.0000         CONSTANT HEAD =        9488.0605
                  ET =  8741725184.0000                    ET =     1905394.1250
            RECHARGE =           0.0000              RECHARGE =           0.0000
     SPECIFIED FLOWS =           0.0000       SPECIFIED FLOWS =           0.0000
       LAKE  SEEPAGE =   276837760.0000         LAKE  SEEPAGE =       16904.1660

           TOTAL OUT = 10068644864.0000             TOTAL OUT =     1931811.6250

            IN - OUT =       75776.0000              IN - OUT =          13.2500

 PERCENT DISCREPANCY =           0.00     PERCENT DISCREPANCY =           0.00






          TIME SUMMARY AT END OF TIME STEP 100 IN STRESS PERIOD    1
                    SECONDS     MINUTES      HOURS       DAYS        YEARS
                    -----------------------------------------------------------
   TIME STEP LENGTH 9.82704E+06 1.63784E+05  2729.7      113.74     0.31140    
 STRESS PERIOD TIME 4.32000E+08 7.20000E+06 1.20000E+05  5000.0      13.689    
         TOTAL TIME 4.32000E+08 7.20000E+06 1.20000E+05  5000.0      13.689    
1
