                                  MODFLOW-2000
      U.S. GEOLOGICAL SURVEY MODULAR FINITE-DIFFERENCE GROUND-WATER FLOW MODEL
                           VERSION 1.19.01 03/25/2010


 This model run combines GLOBAL and LIST output into this single file.

 GLOBAL LISTING FILE: l2a_2k.lst
                         UNIT    1

 OPENING l2a_2k_lak1.got
 FILE TYPE:DATA   UNIT   37   STATUS:UNKNOWN
 FORMAT:FORMATTED              ACCESS:SEQUENTIAL          

 OPENING l2a_2k_lak2.got
 FILE TYPE:DATA   UNIT   38   STATUS:UNKNOWN
 FORMAT:FORMATTED              ACCESS:SEQUENTIAL          

 OPENING l2a_2k_seg1e.got
 FILE TYPE:DATA   UNIT   39   STATUS:UNKNOWN
 FORMAT:FORMATTED              ACCESS:SEQUENTIAL          

 OPENING l2a_2k_seg2b.got
 FILE TYPE:DATA   UNIT   40   STATUS:UNKNOWN
 FORMAT:FORMATTED              ACCESS:SEQUENTIAL          

 OPENING l2a_2k_seg2e.got
 FILE TYPE:DATA   UNIT   41   STATUS:UNKNOWN
 FORMAT:FORMATTED              ACCESS:SEQUENTIAL          

 OPENING l2a_2k_seg3b.got
 FILE TYPE:DATA   UNIT   42   STATUS:UNKNOWN
 FORMAT:FORMATTED              ACCESS:SEQUENTIAL          

 OPENING l2a_2k_seg3e.got
 FILE TYPE:DATA   UNIT   43   STATUS:UNKNOWN
 FORMAT:FORMATTED              ACCESS:SEQUENTIAL          
#                                                                                                                                                                                                       
# Input files                                                                                                                                                                                           

 OPENING ../data/l2a_2k.ba6
 FILE TYPE:BAS6   UNIT    7   STATUS:OLD    
 FORMAT:FORMATTED              ACCESS:SEQUENTIAL          

 OPENING ../data/l2a_2k.bc6
 FILE TYPE:BCF6   UNIT   10   STATUS:OLD    
 FORMAT:FORMATTED              ACCESS:SEQUENTIAL          

 OPENING ../data/l2a_2k.evt
 FILE TYPE:EVT   UNIT   11   STATUS:OLD    
 FORMAT:FORMATTED              ACCESS:SEQUENTIAL          

 OPENING ../data/l2a_2k.rch
 FILE TYPE:RCH   UNIT   12   STATUS:OLD    
 FORMAT:FORMATTED              ACCESS:SEQUENTIAL          

 OPENING ../data/l2a_2k.sip
 FILE TYPE:SIP   UNIT   13   STATUS:OLD    
 FORMAT:FORMATTED              ACCESS:SEQUENTIAL          

 OPENING ../data/l2a_2k.sfr
 FILE TYPE:SFR   UNIT   14   STATUS:OLD    
 FORMAT:FORMATTED              ACCESS:SEQUENTIAL          

 OPENING ../data/l2a_2k.fhb
 FILE TYPE:FHB   UNIT   21   STATUS:OLD    
 FORMAT:FORMATTED              ACCESS:SEQUENTIAL          

 OPENING ../data/l2a_2k.lak
 FILE TYPE:LAK   UNIT   16   STATUS:OLD    
 FORMAT:FORMATTED              ACCESS:SEQUENTIAL          

 OPENING ../data/l2a_2k.oc
 FILE TYPE:OC   UNIT   17   STATUS:OLD    
 FORMAT:FORMATTED              ACCESS:SEQUENTIAL          

 OPENING ../data/l2a_2k.dis
 FILE TYPE:DIS   UNIT   15   STATUS:OLD    
 FORMAT:FORMATTED              ACCESS:SEQUENTIAL          

 OPENING ../data/l2a_2k.gag
 FILE TYPE:GAGE   UNIT   33   STATUS:OLD    
 FORMAT:FORMATTED              ACCESS:SEQUENTIAL          


 DISCRETIZATION INPUT DATA READ FROM UNIT   15
    5 LAYERS        27 ROWS        17 COLUMNS
    1 STRESS PERIOD(S) IN SIMULATION
 MODEL TIME UNIT IS DAYS
 MODEL LENGTH UNIT IS UNDEFINED
 THE GROUND-WATER TRANSPORT PROCESS IS INACTIVE

 THE OBSERVATION PROCESS IS INACTIVE
 THE SENSITIVITY PROCESS IS INACTIVE
 THE PARAMETER-ESTIMATION PROCESS IS INACTIVE

 MODE: FORWARD

  Confining bed flag for each layer:
   0   0   0   0   0

      20699  ELEMENTS OF GX ARRAY USED OUT OF      20699
       2295  ELEMENTS OF GZ ARRAY USED OUT OF       2295
       2295  ELEMENTS OF IG ARRAY USED OUT OF       2295



                               DELR
 READING ON UNIT   15 WITH FORMAT: (10F8.0)            
   250.00       1000.0       1000.0       1000.0       1000.0       1000.0       500.00       500.00       500.00       500.00    
   500.00       1000.0       1000.0       1000.0       1000.0       1000.0       250.00    



                               DELC
 READING ON UNIT   15 WITH FORMAT: (10F8.0)            
   250.00       1000.0       1000.0       1000.0       1000.0       1000.0       500.00       500.00       500.00       500.00    
   500.00       1000.0       1000.0       1000.0       1000.0       1000.0       500.00       500.00       500.00       500.00    
   500.00       1000.0       1000.0       1000.0       1000.0       1000.0       250.00    

 TOP ELEVATION OF LAYER 1 =   200.000    

   MODEL LAYER BOTTOM EL. =   107.000     FOR LAYER   1

   MODEL LAYER BOTTOM EL. =   97.0000     FOR LAYER   2

   MODEL LAYER BOTTOM EL. =   87.0000     FOR LAYER   3

   MODEL LAYER BOTTOM EL. =   77.0000     FOR LAYER   4

   MODEL LAYER BOTTOM EL. =   67.0000     FOR LAYER   5


 STRESS PERIOD     LENGTH       TIME STEPS     MULTIPLIER FOR DELT    SS FLAG
 ----------------------------------------------------------------------------
        1         1500.000        200                    1.005         TR

 TRANSIENT SIMULATION




 SIP5 -- STRONGLY IMPLICIT PROCEDURE SOLUTION PACKAGE
                    VERSION 5, 9/1/93 INPUT READ FROM UNIT   13
 MAXIMUM OF 500 ITERATIONS ALLOWED FOR CLOSURE
  5 ITERATION PARAMETERS
       9685 ELEMENTS IN X ARRAY ARE USED BY SIP
       1500 ELEMENTS IN IX ARRAY ARE USED BY SIP

       9685  ELEMENTS OF X ARRAY USED OUT OF       9685
          0  ELEMENTS OF Z ARRAY USED OUT OF          1
       1500  ELEMENTS OF IX ARRAY USED OUT OF       1500
          0  ELEMENTS OF XHS ARRAY USED OUT OF          1



          SOLUTION BY THE STRONGLY IMPLICIT PROCEDURE
          -------------------------------------------
 MAXIMUM ITERATIONS ALLOWED FOR CLOSURE =      500
                 ACCELERATION PARAMETER =     1.0000    
      HEAD CHANGE CRITERION FOR CLOSURE =    0.10000E-03
      SIP HEAD CHANGE PRINTOUT INTERVAL =      999

     CALCULATE ITERATION PARAMETERS FROM MODEL CALCULATED WSEED
 
 #Shows convergence to equilibrium in transient model. ;begin BAS Input          
 #Tests interaction of two lakes and three streams.    ;second comment line      
    5 LAYERS        27 ROWS        17 COLUMNS
    1 STRESS PERIOD(S) IN SIMULATION

 BAS6 -- BASIC PACKAGE, VERSION 6, 1/11/2000 INPUT READ FROM UNIT    7
         25 ELEMENTS IN IR ARRAY ARE USED BY BAS

 BCF6 -- BLOCK-CENTERED FLOW PACKAGE, VERSION 6, 1/11/2000
         INPUT READ FROM UNIT 10
 TRANSIENT SIMULATION
 HEAD AT CELLS THAT CONVERT TO DRY=   0.0000    
 WETTING CAPABILITY IS ACTIVE
 WETTING FACTOR=   1.00000     WETTING ITERATION INTERVAL=   1
 FLAG THAT SPECIFIES THE EQUATION TO USE FOR HEAD AT WETTED CELLS=   0
      LAYER  LAYER-TYPE CODE     INTERBLOCK T
      --------------------------------------------
         1            1          0 -- HARMONIC    
         2            3          0 -- HARMONIC    
         3            3          0 -- HARMONIC    
         4            3          0 -- HARMONIC    
         5            3          0 -- HARMONIC    
      10562 ELEMENTS IN RX ARRAY ARE USED BY BCF

 EVT6 -- EVAPOTRANSPIRATION PACKAGE, VERSION 6, 12/14/2000
         INPUT READ FROM UNIT   11
 No named parameters
 OPTION 1 -- EVAPOTRANSPIRATION FROM TOP LAYER
       1377 ELEMENTS IN RX ARRAY ARE USED BY EVT
        459 ELEMENTS IN IR ARRAY ARE USED BY EVT

 RCH6 -- RECHARGE PACKAGE, VERSION 6, 1/11/2000 INPUT READ FROM UNIT   12
 No named parameters
 OPTION 3 -- RECHARGE TO HIGHEST ACTIVE NODE IN EACH VERTICAL COLUMN
        459 ELEMENTS IN RX ARRAY ARE USED BY RCH
        459 ELEMENTS IN IR ARRAY ARE USED BY RCH
0FHB1 -- SPECIFIED FLOW PACKAGE, VERSION 1,12/3/96 INPUT READ FROM 21
  SPECIFIED FLOW AND HEAD VALUES WILL REMAIN CONSTANT FOR ENTIRE SIMULATION.
 FLOW WILL BE SPECIFIED AT A TOTAL OF    0 CELLS.
 HEAD WILL BE SPECIFIED AT A TOTAL OF  420 CELLS.
 FHB STEADY-STATE OPTION FLAG WILL BE IGNORED,
 AT LEAST ONE STRESS PERIOD IS TRANSIENT.
  0 AUXILIARY VARIABLES FOR SPECIFIED-FLOW CELLS WILL
  BE DEFINED BY FHB FOR USE BY OTHER PACKAGES.
  0 AUXILIARY VARIABLES FOR SPECIFIED-HEAD CELLS WILL
  BE DEFINED BY FHB FOR USE BY OTHER PACKAGES.
      421 ELEMENTS IN RX ARRAY ARE USED FOR FHB1
     1680 ELEMENTS IN IR ARRAY ARE USED FOR FHB1

 SFR2 -- STREAMFLOW ROUTING PACKAGE, VERSION 2.7, 03/16/2009
         INPUT READ FROM UNIT  14


 NUMBER OF STREAM NODES IS   22

 NUMBER OF STREAM SEGMENTS IS    3

 NUMBER OF STREAM PARAMETERS IS    0

 NUMBER OF STREAM SEGMENTS DEFINED USING PARAMETERS IS    0

 MAXIMUM ERROR FOR STREAM LEAKAGE RATES IS  1.00E-04

 CONSTANT FOR MANNINGS EQUATION IS  1.2839E+05


 UNSATURATED FLOW BENEATH STREAMS IS INACTIVE 

       1136 ELEMENTS IN RX ARRAY ARE USED BY SFR2
       1820 ELEMENTS IN RZ ARRAY ARE USED BY SFR2
        142 ELEMENTS IN IR ARRAY ARE USED BY SFR2

 LAK3 -- LAKE PACKAGE, VERSION 3.2, 1/29/2010 INPUT READ FROM UNIT 16
 SPACE ALLOCATION FOR   1147 GRID CELL FACES ADJACENT TO LAKES
 MAXIMUM NUMBER OF LAKES IS  2 FOR THIS SIMULATION
 CELL-BY-CELL SEEPAGES WILL NOT BE PRINTED OR SAVED

 THETA =  0.500
 THETA IS THE TIME WEIGHTING FACTOR FOR COMPUTING LAKE STAGE DURING TRANSIENT MODFLOW TIME STEPS AND ITS DEFINITION HAS BEEN MODIFIED.
 THETA CAN BE 0, OR BETWEEN 0.5 AND 1.0. VALUES LESS THAN 0.5 ARE RESET TO 0.0 AND VALUES GREATER THAN 1.0 ARE RESET TO 1.0. 
 A THETA OF 0.0 REPRESENTS THE LAKE STAGE FROM THE END OF THE PREVIOUS TIME STEP.
 A THETA OF 0.5 REPRESENTS THE AVERAGE LAKE STAGE DURING A TIME STEP.
 A THETA OF 1.0 REPRESENTS THE LAKE STAGE AT THE END OF THE TIME STEP.




 LAKE PACKAGE HAS BEEN MODIFIED TO ITERATIVELY SOLVE FOR LAKE STAGE DURING TRANSIENT STRESS PERIODS:
 MAXIMUM NUMBER OF ITERATIONS (NSSITR) =   100
 CLOSURE CRITERIA FOR LAKE STAGE (SSCNCR) = 1.000000E-04
 MAGNITUDE OF SURFACE UNDULATIONS OF LAKE BED (SURFDEPTH) = 0.000000E+00
 DEFAULT VALUES FOR TRANSIENT ONLY SIMULATIONS ARE: NSSITR = 100, SSCNCR = 0.0001, AND SURFDEPTH = 1.0
 VALUES OTHER THAN DEFAULT CAN BE READ BY SPECIFYING A THETA LESS THAN ZERO THEN ADDING NSSITR AND SSCNCR PER ORIGINAL INSTRUCTIONS AND SURFDEPTH TO APPROXIMATE UNDULATIONS IN THE LAKEBED
 NEGATIVE THETA MUST BE LESS THAN ZERO BUT NOT MORE THAN ONE. THETA IS CONVERTED TO A POSITIVE VALUE.
 MINIMUM AND MAXIMUM LAKE STAGES FOR TRANSIENT SIMULATIONS ARE SET TO BOTTOM AND TOP ELEVATIONS USED TO COMPUTE LAKE VOLUME, RESPECTIVELY.


       5595 ELEMENTS IN RX ARRAY ARE USED BY LAK
         22 ELEMENTS IN RZ ARRAY ARE USED BY LAK
      10363 ELEMENTS IN IR ARRAY ARE USED BY LAK
          0 ELEMENTS IN RX ARRAY ARE USED BY GAGE
         28 ELEMENTS IN IR ARRAY ARE USED BY GAGE

      19660  ELEMENTS OF RX ARRAY USED OUT OF      19660
       1844  ELEMENTS OF RZ ARRAY USED OUT OF       1844
      13156  ELEMENTS OF IR ARRAY USED OUT OF      13156
1
 #Shows convergence to equilibrium in transient model. ;begin BAS Input          
 #Tests interaction of two lakes and three streams.    ;second comment line      



                     BOUNDARY ARRAY FOR LAYER   1
 READING ON UNIT    7 WITH FORMAT: (17I4)              

        1   2   3   4   5   6   7   8   9  10  11  12  13  14  15  16  17
 ........................................................................
   1   -1  -1  -1  -1  -1  -1  -1  -1  -1  -1  -1  -1  -1  -1  -1  -1  -1
   2   -1   1   1   1   1   1   1   1   1   1   1   1   1   1   1   1  -1
   3   -1   1   1   1   1   1   1   1   1   1   1   1   1   1   1   1  -1
   4   -1   1   1   1   1   1   1   1   1   1   1   1   1   1   1   1  -1
   5   -1   1   1   1   1   1   1   1   1   1   1   1   1   1   1   1  -1
   6   -1   1   1   1   1   1   1   1   1   1   1   1   1   1   1   1  -1
   7   -1   1   1   1   1   1   0   0   0   0   0   1   1   1   1   1  -1
   8   -1   1   1   1   1   1   0   0   0   0   0   1   1   1   1   1  -1
   9   -1   1   1   1   1   1   0   0   0   0   0   1   1   1   1   1  -1
  10   -1   1   1   1   1   1   0   0   0   0   0   1   1   1   1   1  -1
  11   -1   1   1   1   1   1   0   0   0   0   0   1   1   1   1   1  -1
  12   -1   1   1   1   1   1   1   1   1   1   1   1   1   1   1   1  -1
  13   -1   1   1   1   1   1   1   1   1   1   1   1   1   1   1   1  -1
  14   -1   1   1   1   1   1   1   1   1   1   1   1   1   1   1   1  -1
  15   -1   1   1   1   1   1   1   1   1   1   1   1   1   1   1   1  -1
  16   -1   1   1   1   1   1   1   1   1   1   1   1   1   1   1   1  -1
  17   -1   1   1   1   1   1   0   0   0   0   0   1   1   1   1   1  -1
  18   -1   1   1   1   1   1   0   0   0   0   0   1   1   1   1   1  -1
  19   -1   1   1   1   1   1   0   0   0   0   0   1   1   1   1   1  -1
  20   -1   1   1   1   1   1   0   0   0   0   0   1   1   1   1   1  -1
  21   -1   1   1   1   1   1   0   0   0   0   0   1   1   1   1   1  -1
  22   -1   1   1   1   1   1   1   1   1   1   1   1   1   1   1   1  -1
  23   -1   1   1   1   1   1   1   1   1   1   1   1   1   1   1   1  -1
  24   -1   1   1   1   1   1   1   1   1   1   1   1   1   1   1   1  -1
  25   -1   1   1   1   1   1   1   1   1   1   1   1   1   1   1   1  -1
  26   -1   1   1   1   1   1   1   1   1   1   1   1   1   1   1   1  -1
  27   -1  -1  -1  -1  -1  -1  -1  -1  -1  -1  -1  -1  -1  -1  -1  -1  -1



                     BOUNDARY ARRAY FOR LAYER   2
 READING ON UNIT    7 WITH FORMAT: (17I4)              

        1   2   3   4   5   6   7   8   9  10  11  12  13  14  15  16  17
 ........................................................................
   1   -1  -1  -1  -1  -1  -1  -1  -1  -1  -1  -1  -1  -1  -1  -1  -1  -1
   2   -1   1   1   1   1   1   1   1   1   1   1   1   1   1   1   1  -1
   3   -1   1   1   1   1   1   1   1   1   1   1   1   1   1   1   1  -1
   4   -1   1   1   1   1   1   1   1   1   1   1   1   1   1   1   1  -1
   5   -1   1   1   1   1   1   1   1   1   1   1   1   1   1   1   1  -1
   6   -1   1   1   1   1   1   1   1   1   1   1   1   1   1   1   1  -1
   7   -1   1   1   1   1   1   1   1   1   1   1   1   1   1   1   1  -1
   8   -1   1   1   1   1   1   1   0   0   0   1   1   1   1   1   1  -1
   9   -1   1   1   1   1   1   1   0   0   0   1   1   1   1   1   1  -1
  10   -1   1   1   1   1   1   1   0   0   0   1   1   1   1   1   1  -1
  11   -1   1   1   1   1   1   1   1   1   1   1   1   1   1   1   1  -1
  12   -1   1   1   1   1   1   1   1   1   1   1   1   1   1   1   1  -1
  13   -1   1   1   1   1   1   1   1   1   1   1   1   1   1   1   1  -1
  14   -1   1   1   1   1   1   1   1   1   1   1   1   1   1   1   1  -1
  15   -1   1   1   1   1   1   1   1   1   1   1   1   1   1   1   1  -1
  16   -1   1   1   1   1   1   1   1   1   1   1   1   1   1   1   1  -1
  17   -1   1   1   1   1   1   1   1   1   1   1   1   1   1   1   1  -1
  18   -1   1   1   1   1   1   1   0   0   0   1   1   1   1   1   1  -1
  19   -1   1   1   1   1   1   1   0   0   0   1   1   1   1   1   1  -1
  20   -1   1   1   1   1   1   1   0   0   0   1   1   1   1   1   1  -1
  21   -1   1   1   1   1   1   1   1   1   1   1   1   1   1   1   1  -1
  22   -1   1   1   1   1   1   1   1   1   1   1   1   1   1   1   1  -1
  23   -1   1   1   1   1   1   1   1   1   1   1   1   1   1   1   1  -1
  24   -1   1   1   1   1   1   1   1   1   1   1   1   1   1   1   1  -1
  25   -1   1   1   1   1   1   1   1   1   1   1   1   1   1   1   1  -1
  26   -1   1   1   1   1   1   1   1   1   1   1   1   1   1   1   1  -1
  27   -1  -1  -1  -1  -1  -1  -1  -1  -1  -1  -1  -1  -1  -1  -1  -1  -1



                     BOUNDARY ARRAY FOR LAYER   3
 READING ON UNIT    7 WITH FORMAT: (17I4)              

        1   2   3   4   5   6   7   8   9  10  11  12  13  14  15  16  17
 ........................................................................
   1   -1  -1  -1  -1  -1  -1  -1  -1  -1  -1  -1  -1  -1  -1  -1  -1  -1
   2   -1   1   1   1   1   1   1   1   1   1   1   1   1   1   1   1  -1
   3   -1   1   1   1   1   1   1   1   1   1   1   1   1   1   1   1  -1
   4   -1   1   1   1   1   1   1   1   1   1   1   1   1   1   1   1  -1
   5   -1   1   1   1   1   1   1   1   1   1   1   1   1   1   1   1  -1
   6   -1   1   1   1   1   1   1   1   1   1   1   1   1   1   1   1  -1
   7   -1   1   1   1   1   1   1   1   1   1   1   1   1   1   1   1  -1
   8   -1   1   1   1   1   1   1   1   1   1   1   1   1   1   1   1  -1
   9   -1   1   1   1   1   1   1   1   1   1   1   1   1   1   1   1  -1
  10   -1   1   1   1   1   1   1   1   1   1   1   1   1   1   1   1  -1
  11   -1   1   1   1   1   1   1   1   1   1   1   1   1   1   1   1  -1
  12   -1   1   1   1   1   1   1   1   1   1   1   1   1   1   1   1  -1
  13   -1   1   1   1   1   1   1   1   1   1   1   1   1   1   1   1  -1
  14   -1   1   1   1   1   1   1   1   1   1   1   1   1   1   1   1  -1
  15   -1   1   1   1   1   1   1   1   1   1   1   1   1   1   1   1  -1
  16   -1   1   1   1   1   1   1   1   1   1   1   1   1   1   1   1  -1
  17   -1   1   1   1   1   1   1   1   1   1   1   1   1   1   1   1  -1
  18   -1   1   1   1   1   1   1   1   1   1   1   1   1   1   1   1  -1
  19   -1   1   1   1   1   1   1   1   1   1   1   1   1   1   1   1  -1
  20   -1   1   1   1   1   1   1   1   1   1   1   1   1   1   1   1  -1
  21   -1   1   1   1   1   1   1   1   1   1   1   1   1   1   1   1  -1
  22   -1   1   1   1   1   1   1   1   1   1   1   1   1   1   1   1  -1
  23   -1   1   1   1   1   1   1   1   1   1   1   1   1   1   1   1  -1
  24   -1   1   1   1   1   1   1   1   1   1   1   1   1   1   1   1  -1
  25   -1   1   1   1   1   1   1   1   1   1   1   1   1   1   1   1  -1
  26   -1   1   1   1   1   1   1   1   1   1   1   1   1   1   1   1  -1
  27   -1  -1  -1  -1  -1  -1  -1  -1  -1  -1  -1  -1  -1  -1  -1  -1  -1



                     BOUNDARY ARRAY FOR LAYER   4
 READING ON UNIT    7 WITH FORMAT: (17I4)              

        1   2   3   4   5   6   7   8   9  10  11  12  13  14  15  16  17
 ........................................................................
   1   -1  -1  -1  -1  -1  -1  -1  -1  -1  -1  -1  -1  -1  -1  -1  -1  -1
   2   -1   1   1   1   1   1   1   1   1   1   1   1   1   1   1   1  -1
   3   -1   1   1   1   1   1   1   1   1   1   1   1   1   1   1   1  -1
   4   -1   1   1   1   1   1   1   1   1   1   1   1   1   1   1   1  -1
   5   -1   1   1   1   1   1   1   1   1   1   1   1   1   1   1   1  -1
   6   -1   1   1   1   1   1   1   1   1   1   1   1   1   1   1   1  -1
   7   -1   1   1   1   1   1   1   1   1   1   1   1   1   1   1   1  -1
   8   -1   1   1   1   1   1   1   1   1   1   1   1   1   1   1   1  -1
   9   -1   1   1   1   1   1   1   1   1   1   1   1   1   1   1   1  -1
  10   -1   1   1   1   1   1   1   1   1   1   1   1   1   1   1   1  -1
  11   -1   1   1   1   1   1   1   1   1   1   1   1   1   1   1   1  -1
  12   -1   1   1   1   1   1   1   1   1   1   1   1   1   1   1   1  -1
  13   -1   1   1   1   1   1   1   1   1   1   1   1   1   1   1   1  -1
  14   -1   1   1   1   1   1   1   1   1   1   1   1   1   1   1   1  -1
  15   -1   1   1   1   1   1   1   1   1   1   1   1   1   1   1   1  -1
  16   -1   1   1   1   1   1   1   1   1   1   1   1   1   1   1   1  -1
  17   -1   1   1   1   1   1   1   1   1   1   1   1   1   1   1   1  -1
  18   -1   1   1   1   1   1   1   1   1   1   1   1   1   1   1   1  -1
  19   -1   1   1   1   1   1   1   1   1   1   1   1   1   1   1   1  -1
  20   -1   1   1   1   1   1   1   1   1   1   1   1   1   1   1   1  -1
  21   -1   1   1   1   1   1   1   1   1   1   1   1   1   1   1   1  -1
  22   -1   1   1   1   1   1   1   1   1   1   1   1   1   1   1   1  -1
  23   -1   1   1   1   1   1   1   1   1   1   1   1   1   1   1   1  -1
  24   -1   1   1   1   1   1   1   1   1   1   1   1   1   1   1   1  -1
  25   -1   1   1   1   1   1   1   1   1   1   1   1   1   1   1   1  -1
  26   -1   1   1   1   1   1   1   1   1   1   1   1   1   1   1   1  -1
  27   -1  -1  -1  -1  -1  -1  -1  -1  -1  -1  -1  -1  -1  -1  -1  -1  -1



                     BOUNDARY ARRAY FOR LAYER   5
 READING ON UNIT    7 WITH FORMAT: (17I4)              

        1   2   3   4   5   6   7   8   9  10  11  12  13  14  15  16  17
 ........................................................................
   1   -1  -1  -1  -1  -1  -1  -1  -1  -1  -1  -1  -1  -1  -1  -1  -1  -1
   2   -1   1   1   1   1   1   1   1   1   1   1   1   1   1   1   1  -1
   3   -1   1   1   1   1   1   1   1   1   1   1   1   1   1   1   1  -1
   4   -1   1   1   1   1   1   1   1   1   1   1   1   1   1   1   1  -1
   5   -1   1   1   1   1   1   1   1   1   1   1   1   1   1   1   1  -1
   6   -1   1   1   1   1   1   1   1   1   1   1   1   1   1   1   1  -1
   7   -1   1   1   1   1   1   1   1   1   1   1   1   1   1   1   1  -1
   8   -1   1   1   1   1   1   1   1   1   1   1   1   1   1   1   1  -1
   9   -1   1   1   1   1   1   1   1   1   1   1   1   1   1   1   1  -1
  10   -1   1   1   1   1   1   1   1   1   1   1   1   1   1   1   1  -1
  11   -1   1   1   1   1   1   1   1   1   1   1   1   1   1   1   1  -1
  12   -1   1   1   1   1   1   1   1   1   1   1   1   1   1   1   1  -1
  13   -1   1   1   1   1   1   1   1   1   1   1   1   1   1   1   1  -1
  14   -1   1   1   1   1   1   1   1   1   1   1   1   1   1   1   1  -1
  15   -1   1   1   1   1   1   1   1   1   1   1   1   1   1   1   1  -1
  16   -1   1   1   1   1   1   1   1   1   1   1   1   1   1   1   1  -1
  17   -1   1   1   1   1   1   1   1   1   1   1   1   1   1   1   1  -1
  18   -1   1   1   1   1   1   1   1   1   1   1   1   1   1   1   1  -1
  19   -1   1   1   1   1   1   1   1   1   1   1   1   1   1   1   1  -1
  20   -1   1   1   1   1   1   1   1   1   1   1   1   1   1   1   1  -1
  21   -1   1   1   1   1   1   1   1   1   1   1   1   1   1   1   1  -1
  22   -1   1   1   1   1   1   1   1   1   1   1   1   1   1   1   1  -1
  23   -1   1   1   1   1   1   1   1   1   1   1   1   1   1   1   1  -1
  24   -1   1   1   1   1   1   1   1   1   1   1   1   1   1   1   1  -1
  25   -1   1   1   1   1   1   1   1   1   1   1   1   1   1   1   1  -1
  26   -1   1   1   1   1   1   1   1   1   1   1   1   1   1   1   1  -1
  27   -1  -1  -1  -1  -1  -1  -1  -1  -1  -1  -1  -1  -1  -1  -1  -1  -1

 AQUIFER HEAD WILL BE SET TO -999.00     AT ALL NO-FLOW NODES (IBOUND=0).

             INITIAL HEAD =   115.000     FOR LAYER   1

             INITIAL HEAD =   115.000     FOR LAYER   2

             INITIAL HEAD =   115.000     FOR LAYER   3

             INITIAL HEAD =   115.000     FOR LAYER   4

             INITIAL HEAD =   115.000     FOR LAYER   5

 OUTPUT CONTROL IS SPECIFIED EVERY TIME STEP
 HEAD PRINT FORMAT CODE IS -14    DRAWDOWN PRINT FORMAT CODE IS   9
 HEADS WILL BE SAVED ON UNIT   18    DRAWDOWNS WILL BE SAVED ON UNIT   19

 COLUMN TO ROW ANISOTROPY =   1.00000    

     PRIMARY STORAGE COEF =  0.200000     FOR LAYER   1

    HYD. COND. ALONG ROWS =   30.0000     FOR LAYER   1

 VERT HYD COND /THICKNESS =   3.00000     FOR LAYER   1



                   WETDRY PARAMETER FOR LAYER   1
 READING ON UNIT   10 WITH FORMAT: (17F4.0)            

            1           2           3           4           5           6           7           8           9          10
           11          12          13          14          15          16          17
 ........................................................................................................................
   1    0.000       0.000       0.000       0.000       0.000       0.000       0.000       0.000       0.000       0.000    
        0.000       0.000       0.000       0.000       0.000       0.000       0.000    
   2    0.000     -0.2000     -0.2000     -0.2000     -0.2000     -0.2000     -0.2000     -0.2000     -0.2000     -0.2000    
      -0.2000     -0.2000     -0.2000     -0.2000     -0.2000     -0.2000       0.000    
   3    0.000     -0.2000     -0.2000     -0.2000     -0.2000     -0.2000     -0.2000     -0.2000     -0.2000     -0.2000    
      -0.2000     -0.2000     -0.2000     -0.2000     -0.2000     -0.2000       0.000    
   4    0.000     -0.2000     -0.2000     -0.2000     -0.2000     -0.2000     -0.2000     -0.2000     -0.2000     -0.2000    
      -0.2000     -0.2000     -0.2000     -0.2000     -0.2000     -0.2000       0.000    
   5    0.000     -0.2000     -0.2000     -0.2000     -0.2000     -0.2000     -0.2000     -0.2000     -0.2000     -0.2000    
      -0.2000     -0.2000     -0.2000     -0.2000     -0.2000     -0.2000       0.000    
   6    0.000     -0.2000     -0.2000     -0.2000     -0.2000     -0.2000     -0.2000     -0.2000     -0.2000     -0.2000    
      -0.2000     -0.2000     -0.2000     -0.2000     -0.2000     -0.2000       0.000    
   7    0.000     -0.2000     -0.2000     -0.2000     -0.2000     -0.2000       0.000       0.000       0.000       0.000    
        0.000     -0.2000     -0.2000     -0.2000     -0.2000     -0.2000       0.000    
   8    0.000     -0.2000     -0.2000     -0.2000     -0.2000     -0.2000       0.000       0.000       0.000       0.000    
        0.000     -0.2000     -0.2000     -0.2000     -0.2000     -0.2000       0.000    
   9    0.000     -0.2000     -0.2000     -0.2000     -0.2000     -0.2000       0.000       0.000       0.000       0.000    
        0.000     -0.2000     -0.2000     -0.2000     -0.2000     -0.2000       0.000    
  10    0.000     -0.2000     -0.2000     -0.2000     -0.2000     -0.2000       0.000       0.000       0.000       0.000    
        0.000     -0.2000     -0.2000     -0.2000     -0.2000     -0.2000       0.000    
  11    0.000     -0.2000     -0.2000     -0.2000     -0.2000     -0.2000       0.000       0.000       0.000       0.000    
        0.000     -0.2000     -0.2000     -0.2000     -0.2000     -0.2000       0.000    
  12    0.000     -0.2000     -0.2000     -0.2000     -0.2000     -0.2000     -0.2000     -0.2000     -0.2000     -0.2000    
      -0.2000     -0.2000     -0.2000     -0.2000     -0.2000     -0.2000       0.000    
  13    0.000     -0.2000     -0.2000     -0.2000     -0.2000     -0.2000     -0.2000     -0.2000     -0.2000     -0.2000    
      -0.2000     -0.2000     -0.2000     -0.2000     -0.2000     -0.2000       0.000    
  14    0.000     -0.2000     -0.2000     -0.2000     -0.2000     -0.2000     -0.2000     -0.2000     -0.2000     -0.2000    
      -0.2000     -0.2000     -0.2000     -0.2000     -0.2000     -0.2000       0.000    
  15    0.000     -0.2000     -0.2000     -0.2000     -0.2000     -0.2000     -0.2000     -0.2000     -0.2000     -0.2000    
      -0.2000     -0.2000     -0.2000     -0.2000     -0.2000     -0.2000       0.000    
  16    0.000     -0.2000     -0.2000     -0.2000     -0.2000     -0.2000     -0.2000     -0.2000     -0.2000     -0.2000    
      -0.2000     -0.2000     -0.2000     -0.2000     -0.2000     -0.2000       0.000    
  17    0.000     -0.2000     -0.2000     -0.2000     -0.2000     -0.2000       0.000       0.000       0.000       0.000    
        0.000     -0.2000     -0.2000     -0.2000     -0.2000     -0.2000       0.000    
  18    0.000     -0.2000     -0.2000     -0.2000     -0.2000     -0.2000       0.000       0.000       0.000       0.000    
        0.000     -0.2000     -0.2000     -0.2000     -0.2000     -0.2000       0.000    
  19    0.000     -0.2000     -0.2000     -0.2000     -0.2000     -0.2000       0.000       0.000       0.000       0.000    
        0.000     -0.2000     -0.2000     -0.2000     -0.2000     -0.2000       0.000    
  20    0.000     -0.2000     -0.2000     -0.2000     -0.2000     -0.2000       0.000       0.000       0.000       0.000    
        0.000     -0.2000     -0.2000     -0.2000     -0.2000     -0.2000       0.000    
  21    0.000     -0.2000     -0.2000     -0.2000     -0.2000     -0.2000       0.000       0.000       0.000       0.000    
        0.000     -0.2000     -0.2000     -0.2000     -0.2000     -0.2000       0.000    
  22    0.000     -0.2000     -0.2000     -0.2000     -0.2000     -0.2000     -0.2000     -0.2000     -0.2000     -0.2000    
      -0.2000     -0.2000     -0.2000     -0.2000     -0.2000     -0.2000       0.000    
  23    0.000     -0.2000     -0.2000     -0.2000     -0.2000     -0.2000     -0.2000     -0.2000     -0.2000     -0.2000    
      -0.2000     -0.2000     -0.2000     -0.2000     -0.2000     -0.2000       0.000    
  24    0.000     -0.2000     -0.2000     -0.2000     -0.2000     -0.2000     -0.2000     -0.2000     -0.2000     -0.2000    
      -0.2000     -0.2000     -0.2000     -0.2000     -0.2000     -0.2000       0.000    
  25    0.000     -0.2000     -0.2000     -0.2000     -0.2000     -0.2000     -0.2000     -0.2000     -0.2000     -0.2000    
      -0.2000     -0.2000     -0.2000     -0.2000     -0.2000     -0.2000       0.000    
  26    0.000     -0.2000     -0.2000     -0.2000     -0.2000     -0.2000     -0.2000     -0.2000     -0.2000     -0.2000    
      -0.2000     -0.2000     -0.2000     -0.2000     -0.2000     -0.2000       0.000    
  27    0.000       0.000       0.000       0.000       0.000       0.000       0.000       0.000       0.000       0.000    
        0.000       0.000       0.000       0.000       0.000       0.000       0.000    

     PRIMARY STORAGE COEF =  3.000000E-04 FOR LAYER   2

    HYD. COND. ALONG ROWS =   30.0000     FOR LAYER   2

 VERT HYD COND /THICKNESS =   3.00000     FOR LAYER   2

   SECONDARY STORAGE COEF =  0.200000     FOR LAYER   2



                   WETDRY PARAMETER FOR LAYER   2
 READING ON UNIT   10 WITH FORMAT: (17F4.0)            

            1           2           3           4           5           6           7           8           9          10
           11          12          13          14          15          16          17
 ........................................................................................................................
   1    0.000       0.000       0.000       0.000       0.000       0.000       0.000       0.000       0.000       0.000    
        0.000       0.000       0.000       0.000       0.000       0.000       0.000    
   2    0.000     -0.2000     -0.2000     -0.2000     -0.2000     -0.2000     -0.2000     -0.2000     -0.2000     -0.2000    
      -0.2000     -0.2000     -0.2000     -0.2000     -0.2000     -0.2000       0.000    
   3    0.000     -0.2000     -0.2000     -0.2000     -0.2000     -0.2000     -0.2000     -0.2000     -0.2000     -0.2000    
      -0.2000     -0.2000     -0.2000     -0.2000     -0.2000     -0.2000       0.000    
   4    0.000     -0.2000     -0.2000     -0.2000     -0.2000     -0.2000     -0.2000     -0.2000     -0.2000     -0.2000    
      -0.2000     -0.2000     -0.2000     -0.2000     -0.2000     -0.2000       0.000    
   5    0.000     -0.2000     -0.2000     -0.2000     -0.2000     -0.2000     -0.2000     -0.2000     -0.2000     -0.2000    
      -0.2000     -0.2000     -0.2000     -0.2000     -0.2000     -0.2000       0.000    
   6    0.000     -0.2000     -0.2000     -0.2000     -0.2000     -0.2000     -0.2000     -0.2000     -0.2000     -0.2000    
      -0.2000     -0.2000     -0.2000     -0.2000     -0.2000     -0.2000       0.000    
   7    0.000     -0.2000     -0.2000     -0.2000     -0.2000     -0.2000     -0.2000     -0.2000     -0.2000     -0.2000    
      -0.2000     -0.2000     -0.2000     -0.2000     -0.2000     -0.2000       0.000    
   8    0.000     -0.2000     -0.2000     -0.2000     -0.2000     -0.2000     -0.2000       0.000       0.000       0.000    
      -0.2000     -0.2000     -0.2000     -0.2000     -0.2000     -0.2000       0.000    
   9    0.000     -0.2000     -0.2000     -0.2000     -0.2000     -0.2000     -0.2000       0.000       0.000       0.000    
      -0.2000     -0.2000     -0.2000     -0.2000     -0.2000     -0.2000       0.000    
  10    0.000     -0.2000     -0.2000     -0.2000     -0.2000     -0.2000     -0.2000       0.000       0.000       0.000    
      -0.2000     -0.2000     -0.2000     -0.2000     -0.2000     -0.2000       0.000    
  11    0.000     -0.2000     -0.2000     -0.2000     -0.2000     -0.2000     -0.2000     -0.2000     -0.2000     -0.2000    
      -0.2000     -0.2000     -0.2000     -0.2000     -0.2000     -0.2000       0.000    
  12    0.000     -0.2000     -0.2000     -0.2000     -0.2000     -0.2000     -0.2000     -0.2000     -0.2000     -0.2000    
      -0.2000     -0.2000     -0.2000     -0.2000     -0.2000     -0.2000       0.000    
  13    0.000     -0.2000     -0.2000     -0.2000     -0.2000     -0.2000     -0.2000     -0.2000     -0.2000     -0.2000    
      -0.2000     -0.2000     -0.2000     -0.2000     -0.2000     -0.2000       0.000    
  14    0.000     -0.2000     -0.2000     -0.2000     -0.2000     -0.2000     -0.2000     -0.2000     -0.2000     -0.2000    
      -0.2000     -0.2000     -0.2000     -0.2000     -0.2000     -0.2000       0.000    
  15    0.000     -0.2000     -0.2000     -0.2000     -0.2000     -0.2000     -0.2000     -0.2000     -0.2000     -0.2000    
      -0.2000     -0.2000     -0.2000     -0.2000     -0.2000     -0.2000       0.000    
  16    0.000     -0.2000     -0.2000     -0.2000     -0.2000     -0.2000     -0.2000     -0.2000     -0.2000     -0.2000    
      -0.2000     -0.2000     -0.2000     -0.2000     -0.2000     -0.2000       0.000    
  17    0.000     -0.2000     -0.2000     -0.2000     -0.2000     -0.2000     -0.2000     -0.2000     -0.2000     -0.2000    
      -0.2000     -0.2000     -0.2000     -0.2000     -0.2000     -0.2000       0.000    
  18    0.000     -0.2000     -0.2000     -0.2000     -0.2000     -0.2000     -0.2000       0.000       0.000       0.000    
      -0.2000     -0.2000     -0.2000     -0.2000     -0.2000     -0.2000       0.000    
  19    0.000     -0.2000     -0.2000     -0.2000     -0.2000     -0.2000     -0.2000       0.000       0.000       0.000    
      -0.2000     -0.2000     -0.2000     -0.2000     -0.2000     -0.2000       0.000    
  20    0.000     -0.2000     -0.2000     -0.2000     -0.2000     -0.2000     -0.2000       0.000       0.000       0.000    
      -0.2000     -0.2000     -0.2000     -0.2000     -0.2000     -0.2000       0.000    
  21    0.000     -0.2000     -0.2000     -0.2000     -0.2000     -0.2000     -0.2000     -0.2000     -0.2000     -0.2000    
      -0.2000     -0.2000     -0.2000     -0.2000     -0.2000     -0.2000       0.000    
  22    0.000     -0.2000     -0.2000     -0.2000     -0.2000     -0.2000     -0.2000     -0.2000     -0.2000     -0.2000    
      -0.2000     -0.2000     -0.2000     -0.2000     -0.2000     -0.2000       0.000    
  23    0.000     -0.2000     -0.2000     -0.2000     -0.2000     -0.2000     -0.2000     -0.2000     -0.2000     -0.2000    
      -0.2000     -0.2000     -0.2000     -0.2000     -0.2000     -0.2000       0.000    
  24    0.000     -0.2000     -0.2000     -0.2000     -0.2000     -0.2000     -0.2000     -0.2000     -0.2000     -0.2000    
      -0.2000     -0.2000     -0.2000     -0.2000     -0.2000     -0.2000       0.000    
  25    0.000     -0.2000     -0.2000     -0.2000     -0.2000     -0.2000     -0.2000     -0.2000     -0.2000     -0.2000    
      -0.2000     -0.2000     -0.2000     -0.2000     -0.2000     -0.2000       0.000    
  26    0.000     -0.2000     -0.2000     -0.2000     -0.2000     -0.2000     -0.2000     -0.2000     -0.2000     -0.2000    
      -0.2000     -0.2000     -0.2000     -0.2000     -0.2000     -0.2000       0.000    
  27    0.000       0.000       0.000       0.000       0.000       0.000       0.000       0.000       0.000       0.000    
        0.000       0.000       0.000       0.000       0.000       0.000       0.000    

     PRIMARY STORAGE COEF =  3.000000E-04 FOR LAYER   3

    HYD. COND. ALONG ROWS =   30.0000     FOR LAYER   3

 VERT HYD COND /THICKNESS =   3.00000     FOR LAYER   3

   SECONDARY STORAGE COEF =  0.200000     FOR LAYER   3



                   WETDRY PARAMETER FOR LAYER   3
 READING ON UNIT   10 WITH FORMAT: (17F4.0)            

            1           2           3           4           5           6           7           8           9          10
           11          12          13          14          15          16          17
 ........................................................................................................................
   1    0.000       0.000       0.000       0.000       0.000       0.000       0.000       0.000       0.000       0.000    
        0.000       0.000       0.000       0.000       0.000       0.000       0.000    
   2    0.000     -0.2000     -0.2000     -0.2000     -0.2000     -0.2000     -0.2000     -0.2000     -0.2000     -0.2000    
      -0.2000     -0.2000     -0.2000     -0.2000     -0.2000     -0.2000       0.000    
   3    0.000     -0.2000     -0.2000     -0.2000     -0.2000     -0.2000     -0.2000     -0.2000     -0.2000     -0.2000    
      -0.2000     -0.2000     -0.2000     -0.2000     -0.2000     -0.2000       0.000    
   4    0.000     -0.2000     -0.2000     -0.2000     -0.2000     -0.2000     -0.2000     -0.2000     -0.2000     -0.2000    
      -0.2000     -0.2000     -0.2000     -0.2000     -0.2000     -0.2000       0.000    
   5    0.000     -0.2000     -0.2000     -0.2000     -0.2000     -0.2000     -0.2000     -0.2000     -0.2000     -0.2000    
      -0.2000     -0.2000     -0.2000     -0.2000     -0.2000     -0.2000       0.000    
   6    0.000     -0.2000     -0.2000     -0.2000     -0.2000     -0.2000     -0.2000     -0.2000     -0.2000     -0.2000    
      -0.2000     -0.2000     -0.2000     -0.2000     -0.2000     -0.2000       0.000    
   7    0.000     -0.2000     -0.2000     -0.2000     -0.2000     -0.2000     -0.2000     -0.2000     -0.2000     -0.2000    
      -0.2000     -0.2000     -0.2000     -0.2000     -0.2000     -0.2000       0.000    
   8    0.000     -0.2000     -0.2000     -0.2000     -0.2000     -0.2000     -0.2000     -0.2000     -0.2000     -0.2000    
      -0.2000     -0.2000     -0.2000     -0.2000     -0.2000     -0.2000       0.000    
   9    0.000     -0.2000     -0.2000     -0.2000     -0.2000     -0.2000     -0.2000     -0.2000     -0.2000     -0.2000    
      -0.2000     -0.2000     -0.2000     -0.2000     -0.2000     -0.2000       0.000    
  10    0.000     -0.2000     -0.2000     -0.2000     -0.2000     -0.2000     -0.2000     -0.2000     -0.2000     -0.2000    
      -0.2000     -0.2000     -0.2000     -0.2000     -0.2000     -0.2000       0.000    
  11    0.000     -0.2000     -0.2000     -0.2000     -0.2000     -0.2000     -0.2000     -0.2000     -0.2000     -0.2000    
      -0.2000     -0.2000     -0.2000     -0.2000     -0.2000     -0.2000       0.000    
  12    0.000     -0.2000     -0.2000     -0.2000     -0.2000     -0.2000     -0.2000     -0.2000     -0.2000     -0.2000    
      -0.2000     -0.2000     -0.2000     -0.2000     -0.2000     -0.2000       0.000    
  13    0.000     -0.2000     -0.2000     -0.2000     -0.2000     -0.2000     -0.2000     -0.2000     -0.2000     -0.2000    
      -0.2000     -0.2000     -0.2000     -0.2000     -0.2000     -0.2000       0.000    
  14    0.000     -0.2000     -0.2000     -0.2000     -0.2000     -0.2000     -0.2000     -0.2000     -0.2000     -0.2000    
      -0.2000     -0.2000     -0.2000     -0.2000     -0.2000     -0.2000       0.000    
  15    0.000     -0.2000     -0.2000     -0.2000     -0.2000     -0.2000     -0.2000     -0.2000     -0.2000     -0.2000    
      -0.2000     -0.2000     -0.2000     -0.2000     -0.2000     -0.2000       0.000    
  16    0.000     -0.2000     -0.2000     -0.2000     -0.2000     -0.2000     -0.2000     -0.2000     -0.2000     -0.2000    
      -0.2000     -0.2000     -0.2000     -0.2000     -0.2000     -0.2000       0.000    
  17    0.000     -0.2000     -0.2000     -0.2000     -0.2000     -0.2000     -0.2000     -0.2000     -0.2000     -0.2000    
      -0.2000     -0.2000     -0.2000     -0.2000     -0.2000     -0.2000       0.000    
  18    0.000     -0.2000     -0.2000     -0.2000     -0.2000     -0.2000     -0.2000     -0.2000     -0.2000     -0.2000    
      -0.2000     -0.2000     -0.2000     -0.2000     -0.2000     -0.2000       0.000    
  19    0.000     -0.2000     -0.2000     -0.2000     -0.2000     -0.2000     -0.2000     -0.2000     -0.2000     -0.2000    
      -0.2000     -0.2000     -0.2000     -0.2000     -0.2000     -0.2000       0.000    
  20    0.000     -0.2000     -0.2000     -0.2000     -0.2000     -0.2000     -0.2000     -0.2000     -0.2000     -0.2000    
      -0.2000     -0.2000     -0.2000     -0.2000     -0.2000     -0.2000       0.000    
  21    0.000     -0.2000     -0.2000     -0.2000     -0.2000     -0.2000     -0.2000     -0.2000     -0.2000     -0.2000    
      -0.2000     -0.2000     -0.2000     -0.2000     -0.2000     -0.2000       0.000    
  22    0.000     -0.2000     -0.2000     -0.2000     -0.2000     -0.2000     -0.2000     -0.2000     -0.2000     -0.2000    
      -0.2000     -0.2000     -0.2000     -0.2000     -0.2000     -0.2000       0.000    
  23    0.000     -0.2000     -0.2000     -0.2000     -0.2000     -0.2000     -0.2000     -0.2000     -0.2000     -0.2000    
      -0.2000     -0.2000     -0.2000     -0.2000     -0.2000     -0.2000       0.000    
  24    0.000     -0.2000     -0.2000     -0.2000     -0.2000     -0.2000     -0.2000     -0.2000     -0.2000     -0.2000    
      -0.2000     -0.2000     -0.2000     -0.2000     -0.2000     -0.2000       0.000    
  25    0.000     -0.2000     -0.2000     -0.2000     -0.2000     -0.2000     -0.2000     -0.2000     -0.2000     -0.2000    
      -0.2000     -0.2000     -0.2000     -0.2000     -0.2000     -0.2000       0.000    
  26    0.000     -0.2000     -0.2000     -0.2000     -0.2000     -0.2000     -0.2000     -0.2000     -0.2000     -0.2000    
      -0.2000     -0.2000     -0.2000     -0.2000     -0.2000     -0.2000       0.000    
  27    0.000       0.000       0.000       0.000       0.000       0.000       0.000       0.000       0.000       0.000    
        0.000       0.000       0.000       0.000       0.000       0.000       0.000    

     PRIMARY STORAGE COEF =  3.000000E-04 FOR LAYER   4

    HYD. COND. ALONG ROWS =   30.0000     FOR LAYER   4

 VERT HYD COND /THICKNESS =   3.00000     FOR LAYER   4

   SECONDARY STORAGE COEF =  0.200000     FOR LAYER   4



                   WETDRY PARAMETER FOR LAYER   4
 READING ON UNIT   10 WITH FORMAT: (17F4.0)            

            1           2           3           4           5           6           7           8           9          10
           11          12          13          14          15          16          17
 ........................................................................................................................
   1    0.000       0.000       0.000       0.000       0.000       0.000       0.000       0.000       0.000       0.000    
        0.000       0.000       0.000       0.000       0.000       0.000       0.000    
   2    0.000     -0.2000     -0.2000     -0.2000     -0.2000     -0.2000     -0.2000     -0.2000     -0.2000     -0.2000    
      -0.2000     -0.2000     -0.2000     -0.2000     -0.2000     -0.2000       0.000    
   3    0.000     -0.2000     -0.2000     -0.2000     -0.2000     -0.2000     -0.2000     -0.2000     -0.2000     -0.2000    
      -0.2000     -0.2000     -0.2000     -0.2000     -0.2000     -0.2000       0.000    
   4    0.000     -0.2000     -0.2000     -0.2000     -0.2000     -0.2000     -0.2000     -0.2000     -0.2000     -0.2000    
      -0.2000     -0.2000     -0.2000     -0.2000     -0.2000     -0.2000       0.000    
   5    0.000     -0.2000     -0.2000     -0.2000     -0.2000     -0.2000     -0.2000     -0.2000     -0.2000     -0.2000    
      -0.2000     -0.2000     -0.2000     -0.2000     -0.2000     -0.2000       0.000    
   6    0.000     -0.2000     -0.2000     -0.2000     -0.2000     -0.2000     -0.2000     -0.2000     -0.2000     -0.2000    
      -0.2000     -0.2000     -0.2000     -0.2000     -0.2000     -0.2000       0.000    
   7    0.000     -0.2000     -0.2000     -0.2000     -0.2000     -0.2000     -0.2000     -0.2000     -0.2000     -0.2000    
      -0.2000     -0.2000     -0.2000     -0.2000     -0.2000     -0.2000       0.000    
   8    0.000     -0.2000     -0.2000     -0.2000     -0.2000     -0.2000     -0.2000     -0.2000     -0.2000     -0.2000    
      -0.2000     -0.2000     -0.2000     -0.2000     -0.2000     -0.2000       0.000    
   9    0.000     -0.2000     -0.2000     -0.2000     -0.2000     -0.2000     -0.2000     -0.2000     -0.2000     -0.2000    
      -0.2000     -0.2000     -0.2000     -0.2000     -0.2000     -0.2000       0.000    
  10    0.000     -0.2000     -0.2000     -0.2000     -0.2000     -0.2000     -0.2000     -0.2000     -0.2000     -0.2000    
      -0.2000     -0.2000     -0.2000     -0.2000     -0.2000     -0.2000       0.000    
  11    0.000     -0.2000     -0.2000     -0.2000     -0.2000     -0.2000     -0.2000     -0.2000     -0.2000     -0.2000    
      -0.2000     -0.2000     -0.2000     -0.2000     -0.2000     -0.2000       0.000    
  12    0.000     -0.2000     -0.2000     -0.2000     -0.2000     -0.2000     -0.2000     -0.2000     -0.2000     -0.2000    
      -0.2000     -0.2000     -0.2000     -0.2000     -0.2000     -0.2000       0.000    
  13    0.000     -0.2000     -0.2000     -0.2000     -0.2000     -0.2000     -0.2000     -0.2000     -0.2000     -0.2000    
      -0.2000     -0.2000     -0.2000     -0.2000     -0.2000     -0.2000       0.000    
  14    0.000     -0.2000     -0.2000     -0.2000     -0.2000     -0.2000     -0.2000     -0.2000     -0.2000     -0.2000    
      -0.2000     -0.2000     -0.2000     -0.2000     -0.2000     -0.2000       0.000    
  15    0.000     -0.2000     -0.2000     -0.2000     -0.2000     -0.2000     -0.2000     -0.2000     -0.2000     -0.2000    
      -0.2000     -0.2000     -0.2000     -0.2000     -0.2000     -0.2000       0.000    
  16    0.000     -0.2000     -0.2000     -0.2000     -0.2000     -0.2000     -0.2000     -0.2000     -0.2000     -0.2000    
      -0.2000     -0.2000     -0.2000     -0.2000     -0.2000     -0.2000       0.000    
  17    0.000     -0.2000     -0.2000     -0.2000     -0.2000     -0.2000     -0.2000     -0.2000     -0.2000     -0.2000    
      -0.2000     -0.2000     -0.2000     -0.2000     -0.2000     -0.2000       0.000    
  18    0.000     -0.2000     -0.2000     -0.2000     -0.2000     -0.2000     -0.2000     -0.2000     -0.2000     -0.2000    
      -0.2000     -0.2000     -0.2000     -0.2000     -0.2000     -0.2000       0.000    
  19    0.000     -0.2000     -0.2000     -0.2000     -0.2000     -0.2000     -0.2000     -0.2000     -0.2000     -0.2000    
      -0.2000     -0.2000     -0.2000     -0.2000     -0.2000     -0.2000       0.000    
  20    0.000     -0.2000     -0.2000     -0.2000     -0.2000     -0.2000     -0.2000     -0.2000     -0.2000     -0.2000    
      -0.2000     -0.2000     -0.2000     -0.2000     -0.2000     -0.2000       0.000    
  21    0.000     -0.2000     -0.2000     -0.2000     -0.2000     -0.2000     -0.2000     -0.2000     -0.2000     -0.2000    
      -0.2000     -0.2000     -0.2000     -0.2000     -0.2000     -0.2000       0.000    
  22    0.000     -0.2000     -0.2000     -0.2000     -0.2000     -0.2000     -0.2000     -0.2000     -0.2000     -0.2000    
      -0.2000     -0.2000     -0.2000     -0.2000     -0.2000     -0.2000       0.000    
  23    0.000     -0.2000     -0.2000     -0.2000     -0.2000     -0.2000     -0.2000     -0.2000     -0.2000     -0.2000    
      -0.2000     -0.2000     -0.2000     -0.2000     -0.2000     -0.2000       0.000    
  24    0.000     -0.2000     -0.2000     -0.2000     -0.2000     -0.2000     -0.2000     -0.2000     -0.2000     -0.2000    
      -0.2000     -0.2000     -0.2000     -0.2000     -0.2000     -0.2000       0.000    
  25    0.000     -0.2000     -0.2000     -0.2000     -0.2000     -0.2000     -0.2000     -0.2000     -0.2000     -0.2000    
      -0.2000     -0.2000     -0.2000     -0.2000     -0.2000     -0.2000       0.000    
  26    0.000     -0.2000     -0.2000     -0.2000     -0.2000     -0.2000     -0.2000     -0.2000     -0.2000     -0.2000    
      -0.2000     -0.2000     -0.2000     -0.2000     -0.2000     -0.2000       0.000    
  27    0.000       0.000       0.000       0.000       0.000       0.000       0.000       0.000       0.000       0.000    
        0.000       0.000       0.000       0.000       0.000       0.000       0.000    

     PRIMARY STORAGE COEF =  3.000000E-04 FOR LAYER   5

    HYD. COND. ALONG ROWS =   30.0000     FOR LAYER   5

   SECONDARY STORAGE COEF =  0.200000     FOR LAYER   5



                   WETDRY PARAMETER FOR LAYER   5
 READING ON UNIT   10 WITH FORMAT: (17F4.0)            

            1           2           3           4           5           6           7           8           9          10
           11          12          13          14          15          16          17
 ........................................................................................................................
   1    0.000       0.000       0.000       0.000       0.000       0.000       0.000       0.000       0.000       0.000    
        0.000       0.000       0.000       0.000       0.000       0.000       0.000    
   2    0.000     -0.2000     -0.2000     -0.2000     -0.2000     -0.2000     -0.2000     -0.2000     -0.2000     -0.2000    
      -0.2000     -0.2000     -0.2000     -0.2000     -0.2000     -0.2000       0.000    
   3    0.000     -0.2000     -0.2000     -0.2000     -0.2000     -0.2000     -0.2000     -0.2000     -0.2000     -0.2000    
      -0.2000     -0.2000     -0.2000     -0.2000     -0.2000     -0.2000       0.000    
   4    0.000     -0.2000     -0.2000     -0.2000     -0.2000     -0.2000     -0.2000     -0.2000     -0.2000     -0.2000    
      -0.2000     -0.2000     -0.2000     -0.2000     -0.2000     -0.2000       0.000    
   5    0.000     -0.2000     -0.2000     -0.2000     -0.2000     -0.2000     -0.2000     -0.2000     -0.2000     -0.2000    
      -0.2000     -0.2000     -0.2000     -0.2000     -0.2000     -0.2000       0.000    
   6    0.000     -0.2000     -0.2000     -0.2000     -0.2000     -0.2000     -0.2000     -0.2000     -0.2000     -0.2000    
      -0.2000     -0.2000     -0.2000     -0.2000     -0.2000     -0.2000       0.000    
   7    0.000     -0.2000     -0.2000     -0.2000     -0.2000     -0.2000     -0.2000     -0.2000     -0.2000     -0.2000    
      -0.2000     -0.2000     -0.2000     -0.2000     -0.2000     -0.2000       0.000    
   8    0.000     -0.2000     -0.2000     -0.2000     -0.2000     -0.2000     -0.2000     -0.2000     -0.2000     -0.2000    
      -0.2000     -0.2000     -0.2000     -0.2000     -0.2000     -0.2000       0.000    
   9    0.000     -0.2000     -0.2000     -0.2000     -0.2000     -0.2000     -0.2000     -0.2000     -0.2000     -0.2000    
      -0.2000     -0.2000     -0.2000     -0.2000     -0.2000     -0.2000       0.000    
  10    0.000     -0.2000     -0.2000     -0.2000     -0.2000     -0.2000     -0.2000     -0.2000     -0.2000     -0.2000    
      -0.2000     -0.2000     -0.2000     -0.2000     -0.2000     -0.2000       0.000    
  11    0.000     -0.2000     -0.2000     -0.2000     -0.2000     -0.2000     -0.2000     -0.2000     -0.2000     -0.2000    
      -0.2000     -0.2000     -0.2000     -0.2000     -0.2000     -0.2000       0.000    
  12    0.000     -0.2000     -0.2000     -0.2000     -0.2000     -0.2000     -0.2000     -0.2000     -0.2000     -0.2000    
      -0.2000     -0.2000     -0.2000     -0.2000     -0.2000     -0.2000       0.000    
  13    0.000     -0.2000     -0.2000     -0.2000     -0.2000     -0.2000     -0.2000     -0.2000     -0.2000     -0.2000    
      -0.2000     -0.2000     -0.2000     -0.2000     -0.2000     -0.2000       0.000    
  14    0.000     -0.2000     -0.2000     -0.2000     -0.2000     -0.2000     -0.2000     -0.2000     -0.2000     -0.2000    
      -0.2000     -0.2000     -0.2000     -0.2000     -0.2000     -0.2000       0.000    
  15    0.000     -0.2000     -0.2000     -0.2000     -0.2000     -0.2000     -0.2000     -0.2000     -0.2000     -0.2000    
      -0.2000     -0.2000     -0.2000     -0.2000     -0.2000     -0.2000       0.000    
  16    0.000     -0.2000     -0.2000     -0.2000     -0.2000     -0.2000     -0.2000     -0.2000     -0.2000     -0.2000    
      -0.2000     -0.2000     -0.2000     -0.2000     -0.2000     -0.2000       0.000    
  17    0.000     -0.2000     -0.2000     -0.2000     -0.2000     -0.2000     -0.2000     -0.2000     -0.2000     -0.2000    
      -0.2000     -0.2000     -0.2000     -0.2000     -0.2000     -0.2000       0.000    
  18    0.000     -0.2000     -0.2000     -0.2000     -0.2000     -0.2000     -0.2000     -0.2000     -0.2000     -0.2000    
      -0.2000     -0.2000     -0.2000     -0.2000     -0.2000     -0.2000       0.000    
  19    0.000     -0.2000     -0.2000     -0.2000     -0.2000     -0.2000     -0.2000     -0.2000     -0.2000     -0.2000    
      -0.2000     -0.2000     -0.2000     -0.2000     -0.2000     -0.2000       0.000    
  20    0.000     -0.2000     -0.2000     -0.2000     -0.2000     -0.2000     -0.2000     -0.2000     -0.2000     -0.2000    
      -0.2000     -0.2000     -0.2000     -0.2000     -0.2000     -0.2000       0.000    
  21    0.000     -0.2000     -0.2000     -0.2000     -0.2000     -0.2000     -0.2000     -0.2000     -0.2000     -0.2000    
      -0.2000     -0.2000     -0.2000     -0.2000     -0.2000     -0.2000       0.000    
  22    0.000     -0.2000     -0.2000     -0.2000     -0.2000     -0.2000     -0.2000     -0.2000     -0.2000     -0.2000    
      -0.2000     -0.2000     -0.2000     -0.2000     -0.2000     -0.2000       0.000    
  23    0.000     -0.2000     -0.2000     -0.2000     -0.2000     -0.2000     -0.2000     -0.2000     -0.2000     -0.2000    
      -0.2000     -0.2000     -0.2000     -0.2000     -0.2000     -0.2000       0.000    
  24    0.000     -0.2000     -0.2000     -0.2000     -0.2000     -0.2000     -0.2000     -0.2000     -0.2000     -0.2000    
      -0.2000     -0.2000     -0.2000     -0.2000     -0.2000     -0.2000       0.000    
  25    0.000     -0.2000     -0.2000     -0.2000     -0.2000     -0.2000     -0.2000     -0.2000     -0.2000     -0.2000    
      -0.2000     -0.2000     -0.2000     -0.2000     -0.2000     -0.2000       0.000    
  26    0.000     -0.2000     -0.2000     -0.2000     -0.2000     -0.2000     -0.2000     -0.2000     -0.2000     -0.2000    
      -0.2000     -0.2000     -0.2000     -0.2000     -0.2000     -0.2000       0.000    
  27    0.000       0.000       0.000       0.000       0.000       0.000       0.000       0.000       0.000       0.000    
        0.000       0.000       0.000       0.000       0.000       0.000       0.000    


     0 Evapotranspiration parameters


     0 Recharge parameters
 TIMES FOR SPECIFIED-FLOW AND HEAD VALUES WILL BE READ ON UNIT  21 AND
 MULTIPLIED BY   1.000    .
     1 TIMES FOR SPECIFYING FLOWS AND HEADS:
                       1
                 ------------
                    0.000    

 CELL INDICIES AND SPECIFIED-HEAD VALUES WILL BE READ ON UNIT  21. HEAD VALUES
 WILL BE MULTIPLIED BY   1.000    .
 LAYER  ROW  COL IAUX             HEAD VALUES
 -------------------------------
    1    1    1   64   160.0    
    1    2    1   64   160.0    
    1    3    1   64   160.0    
    1    4    1   64   160.0    
    1    5    1   64   160.0    
    1    6    1   64   160.0    
    1    7    1   64   160.0    
    1    8    1   64   160.0    
    1    9    1   64   160.0    
    1   10    1   64   160.0    
    1   11    1   64   160.0    
    1   12    1   64   160.0    
    1   13    1   64   160.0    
    1   14    1   64   160.0    
    1   15    1   64   160.0    
    1   16    1   64   160.0    
    1   17    1   64   160.0    
    1   18    1   64   160.0    
    1   19    1   64   160.0    
    1   20    1   64   160.0    
    1   21    1   64   160.0    
    1   22    1   64   160.0    
    1   23    1   64   160.0    
    1   24    1   64   160.0    
    1   25    1   64   160.0    
    1   26    1   64   160.0    
    1   27    1   64   160.0    
    1    1   17   64   140.0    
    1    2   17   64   140.0    
    1    3   17   64   140.0    
    1    4   17   64   140.0    
    1    5   17   64   140.0    
    1    6   17   64   140.0    
    1    7   17   64   140.0    
    1    8   17   64   140.0    
    1    9   17   64   140.0    
    1   10   17   64   140.0    
    1   11   17   64   140.0    
    1   12   17   64   140.0    
    1   13   17   64   140.0    
    1   14   17   64   140.0    
    1   15   17   64   140.0    
    1   16   17   64   140.0    
    1   17   17   64   140.0    
    1   18   17   64   140.0    
    1   19   17   64   140.0    
    1   20   17   64   140.0    
    1   21   17   64   140.0    
    1   22   17   64   140.0    
    1   23   17   64   140.0    
    1   24   17   64   140.0    
    1   25   17   64   140.0    
    1   26   17   64   140.0    
    1   27   17   64   140.0    
    2    1    1   64   160.0    
    2    2    1   64   160.0    
    2    3    1   64   160.0    
    2    4    1   64   160.0    
    2    5    1   64   160.0    
    2    6    1   64   160.0    
    2    7    1   64   160.0    
    2    8    1   64   160.0    
    2    9    1   64   160.0    
    2   10    1   64   160.0    
    2   11    1   64   160.0    
    2   12    1   64   160.0    
    2   13    1   64   160.0    
    2   14    1   64   160.0    
    2   15    1   64   160.0    
    2   16    1   64   160.0    
    2   17    1   64   160.0    
    2   18    1   64   160.0    
    2   19    1   64   160.0    
    2   20    1   64   160.0    
    2   21    1   64   160.0    
    2   22    1   64   160.0    
    2   23    1   64   160.0    
    2   24    1   64   160.0    
    2   25    1   64   160.0    
    2   26    1   64   160.0    
    2   27    1   64   160.0    
    2    1   17   64   140.0    
    2    2   17   64   140.0    
    2    3   17   64   140.0    
    2    4   17   64   140.0    
    2    5   17   64   140.0    
    2    6   17   64   140.0    
    2    7   17   64   140.0    
    2    8   17   64   140.0    
    2    9   17   64   140.0    
    2   10   17   64   140.0    
    2   11   17   64   140.0    
    2   12   17   64   140.0    
    2   13   17   64   140.0    
    2   14   17   64   140.0    
    2   15   17   64   140.0    
    2   16   17   64   140.0    
    2   17   17   64   140.0    
    2   18   17   64   140.0    
    2   19   17   64   140.0    
    2   20   17   64   140.0    
    2   21   17   64   140.0    
    2   22   17   64   140.0    
    2   23   17   64   140.0    
    2   24   17   64   140.0    
    2   25   17   64   140.0    
    2   26   17   64   140.0    
    2   27   17   64   140.0    
    3    1    1   64   160.0    
    3    2    1   64   160.0    
    3    3    1   64   160.0    
    3    4    1   64   160.0    
    3    5    1   64   160.0    
    3    6    1   64   160.0    
    3    7    1   64   160.0    
    3    8    1   64   160.0    
    3    9    1   64   160.0    
    3   10    1   64   160.0    
    3   11    1   64   160.0    
    3   12    1   64   160.0    
    3   13    1   64   160.0    
    3   14    1   64   160.0    
    3   15    1   64   160.0    
    3   16    1   64   160.0    
    3   17    1   64   160.0    
    3   18    1   64   160.0    
    3   19    1   64   160.0    
    3   20    1   64   160.0    
    3   21    1   64   160.0    
    3   22    1   64   160.0    
    3   23    1   64   160.0    
    3   24    1   64   160.0    
    3   25    1   64   160.0    
    3   26    1   64   160.0    
    3   27    1   64   160.0    
    3    1   17   64   140.0    
    3    2   17   64   140.0    
    3    3   17   64   140.0    
    3    4   17   64   140.0    
    3    5   17   64   140.0    
    3    6   17   64   140.0    
    3    7   17   64   140.0    
    3    8   17   64   140.0    
    3    9   17   64   140.0    
    3   10   17   64   140.0    
    3   11   17   64   140.0    
    3   12   17   64   140.0    
    3   13   17   64   140.0    
    3   14   17   64   140.0    
    3   15   17   64   140.0    
    3   16   17   64   140.0    
    3   17   17   64   140.0    
    3   18   17   64   140.0    
    3   19   17   64   140.0    
    3   20   17   64   140.0    
    3   21   17   64   140.0    
    3   22   17   64   140.0    
    3   23   17   64   140.0    
    3   24   17   64   140.0    
    3   25   17   64   140.0    
    3   26   17   64   140.0    
    3   27   17   64   140.0    
    4    1    1   64   160.0    
    4    2    1   64   160.0    
    4    3    1   64   160.0    
    4    4    1   64   160.0    
    4    5    1   64   160.0    
    4    6    1   64   160.0    
    4    7    1   64   160.0    
    4    8    1   64   160.0    
    4    9    1   64   160.0    
    4   10    1   64   160.0    
    4   11    1   64   160.0    
    4   12    1   64   160.0    
    4   13    1   64   160.0    
    4   14    1   64   160.0    
    4   15    1   64   160.0    
    4   16    1   64   160.0    
    4   17    1   64   160.0    
    4   18    1   64   160.0    
    4   19    1   64   160.0    
    4   20    1   64   160.0    
    4   21    1   64   160.0    
    4   22    1   64   160.0    
    4   23    1   64   160.0    
    4   24    1   64   160.0    
    4   25    1   64   160.0    
    4   26    1   64   160.0    
    4   27    1   64   160.0    
    4    1   17   64   140.0    
    4    2   17   64   140.0    
    4    3   17   64   140.0    
    4    4   17   64   140.0    
    4    5   17   64   140.0    
    4    6   17   64   140.0    
    4    7   17   64   140.0    
    4    8   17   64   140.0    
    4    9   17   64   140.0    
    4   10   17   64   140.0    
    4   11   17   64   140.0    
    4   12   17   64   140.0    
    4   13   17   64   140.0    
    4   14   17   64   140.0    
    4   15   17   64   140.0    
    4   16   17   64   140.0    
    4   17   17   64   140.0    
    4   18   17   64   140.0    
    4   19   17   64   140.0    
    4   20   17   64   140.0    
    4   21   17   64   140.0    
    4   22   17   64   140.0    
    4   23   17   64   140.0    
    4   24   17   64   140.0    
    4   25   17   64   140.0    
    4   26   17   64   140.0    
    4   27   17   64   140.0    
    5    1    1   64   160.0    
    5    2    1   64   160.0    
    5    3    1   64   160.0    
    5    4    1   64   160.0    
    5    5    1   64   160.0    
    5    6    1   64   160.0    
    5    7    1   64   160.0    
    5    8    1   64   160.0    
    5    9    1   64   160.0    
    5   10    1   64   160.0    
    5   11    1   64   160.0    
    5   12    1   64   160.0    
    5   13    1   64   160.0    
    5   14    1   64   160.0    
    5   15    1   64   160.0    
    5   16    1   64   160.0    
    5   17    1   64   160.0    
    5   18    1   64   160.0    
    5   19    1   64   160.0    
    5   20    1   64   160.0    
    5   21    1   64   160.0    
    5   22    1   64   160.0    
    5   23    1   64   160.0    
    5   24    1   64   160.0    
    5   25    1   64   160.0    
    5   26    1   64   160.0    
    5   27    1   64   160.0    
    5    1   17   64   140.0    
    5    2   17   64   140.0    
    5    3   17   64   140.0    
    5    4   17   64   140.0    
    5    5   17   64   140.0    
    5    6   17   64   140.0    
    5    7   17   64   140.0    
    5    8   17   64   140.0    
    5    9   17   64   140.0    
    5   10   17   64   140.0    
    5   11   17   64   140.0    
    5   12   17   64   140.0    
    5   13   17   64   140.0    
    5   14   17   64   140.0    
    5   15   17   64   140.0    
    5   16   17   64   140.0    
    5   17   17   64   140.0    
    5   18   17   64   140.0    
    5   19   17   64   140.0    
    5   20   17   64   140.0    
    5   21   17   64   140.0    
    5   22   17   64   140.0    
    5   23   17   64   140.0    
    5   24   17   64   140.0    
    5   25   17   64   140.0    
    5   26   17   64   140.0    
    5   27   17   64   140.0    
    1    1    2   64   158.9    
    1    1    3   64   157.3    
    1    1    4   64   155.8    
    1    1    5   64   154.2    
    1    1    6   64   152.7    
    1    1    7   64   151.5    
    1    1    8   64   150.8    
    1    1    9   64   150.0    
    1    1   10   64   149.2    
    1    1   11   64   148.5    
    1    1   12   64   147.3    
    1    1   13   64   145.8    
    1    1   14   64   144.2    
    1    1   15   64   142.7    
    1    1   16   64   141.1    
    1   27    2   64   158.9    
    1   27    3   64   157.3    
    1   27    4   64   155.8    
    1   27    5   64   154.2    
    1   27    6   64   152.7    
    1   27    7   64   151.5    
    1   27    8   64   150.8    
    1   27    9   64   150.0    
    1   27   10   64   149.2    
    1   27   11   64   148.5    
    1   27   12   64   147.3    
    1   27   13   64   145.8    
    1   27   14   64   144.2    
    1   27   15   64   142.7    
    1   27   16   64   141.1    
    2    1    2   64   158.9    
    2    1    3   64   157.3    
    2    1    4   64   155.8    
    2    1    5   64   154.2    
    2    1    6   64   152.7    
    2    1    7   64   151.5    
    2    1    8   64   150.8    
    2    1    9   64   150.0    
    2    1   10   64   149.2    
    2    1   11   64   148.5    
    2    1   12   64   147.3    
    2    1   13   64   145.8    
    2    1   14   64   144.2    
    2    1   15   64   142.7    
    2    1   16   64   141.1    
    2   27    2   64   158.9    
    2   27    3   64   157.3    
    2   27    4   64   155.8    
    2   27    5   64   154.2    
    2   27    6   64   152.7    
    2   27    7   64   151.5    
    2   27    8   64   150.8    
    2   27    9   64   150.0    
    2   27   10   64   149.2    
    2   27   11   64   148.5    
    2   27   12   64   147.3    
    2   27   13   64   145.8    
    2   27   14   64   144.2    
    2   27   15   64   142.7    
    2   27   16   64   141.1    
    3    1    2   64   158.9    
    3    1    3   64   157.3    
    3    1    4   64   155.8    
    3    1    5   64   154.2    
    3    1    6   64   152.7    
    3    1    7   64   151.5    
    3    1    8   64   150.8    
    3    1    9   64   150.0    
    3    1   10   64   149.2    
    3    1   11   64   148.5    
    3    1   12   64   147.3    
    3    1   13   64   145.8    
    3    1   14   64   144.2    
    3    1   15   64   142.7    
    3    1   16   64   141.1    
    3   27    2   64   158.9    
    3   27    3   64   157.3    
    3   27    4   64   155.8    
    3   27    5   64   154.2    
    3   27    6   64   152.7    
    3   27    7   64   151.5    
    3   27    8   64   150.8    
    3   27    9   64   150.0    
    3   27   10   64   149.2    
    3   27   11   64   148.5    
    3   27   12   64   147.3    
    3   27   13   64   145.8    
    3   27   14   64   144.2    
    3   27   15   64   142.7    
    3   27   16   64   141.1    
    4    1    2   64   158.9    
    4    1    3   64   157.3    
    4    1    4   64   155.8    
    4    1    5   64   154.2    
    4    1    6   64   152.7    
    4    1    7   64   151.5    
    4    1    8   64   150.8    
    4    1    9   64   150.0    
    4    1   10   64   149.2    
    4    1   11   64   148.5    
    4    1   12   64   147.3    
    4    1   13   64   145.8    
    4    1   14   64   144.2    
    4    1   15   64   142.7    
    4    1   16   64   141.1    
    4   27    2   64   158.9    
    4   27    3   64   157.3    
    4   27    4   64   155.8    
    4   27    5   64   154.2    
    4   27    6   64   152.7    
    4   27    7   64   151.5    
    4   27    8   64   150.8    
    4   27    9   64   150.0    
    4   27   10   64   149.2    
    4   27   11   64   148.5    
    4   27   12   64   147.3    
    4   27   13   64   145.8    
    4   27   14   64   144.2    
    4   27   15   64   142.7    
    4   27   16   64   141.1    
    5    1    2   64   158.9    
    5    1    3   64   157.3    
    5    1    4   64   155.8    
    5    1    5   64   154.2    
    5    1    6   64   152.7    
    5    1    7   64   151.5    
    5    1    8   64   150.8    
    5    1    9   64   150.0    
    5    1   10   64   149.2    
    5    1   11   64   148.5    
    5    1   12   64   147.3    
    5    1   13   64   145.8    
    5    1   14   64   144.2    
    5    1   15   64   142.7    
    5    1   16   64   141.1    
    5   27    2   64   158.9    
    5   27    3   64   157.3    
    5   27    4   64   155.8    
    5   27    5   64   154.2    
    5   27    6   64   152.7    
    5   27    7   64   151.5    
    5   27    8   64   150.8    
    5   27    9   64   150.0    
    5   27   10   64   149.2    
    5   27   11   64   148.5    
    5   27   12   64   147.3    
    5   27   13   64   145.8    
    5   27   14   64   144.2    
    5   27   15   64   142.7    
    5   27   16   64   141.1    


   STREAM NETWORK DESCRIPTION: 

   LAYER    ROW    COL   SEGMENT   REACH     LENGTH
                          NUMBER   NUMBER    IN CELL
   --------------------------------------------------
      1      2      5       1        1    1.0000E+03
      1      3      5       1        2    1.0000E+03
      1      4      5       1        3    1.0000E+03
      1      4      6       1        4    1.0000E+03
      1      4      7       1        5    5.0000E+02
      1      4      8       1        6    7.5000E+02
      1      5      8       1        7    1.0000E+03
      1      6      8       1        8    1.0000E+03
      1     12      9       2        1    1.0000E+03
      1     13      9       2        2    1.0000E+03
      1     14     10       2        3    5.5900E+02
      1     14     10       2        4    5.5900E+02
      1     15     10       2        5    1.0000E+03
      1     16     10       2        6    1.0000E+03
      1     22     10       3        1    1.0000E+03
      1     23     10       3        2    7.5000E+02
      1     23     11       3        3    5.0000E+02
      1     23     12       3        4    1.0000E+03
      1     23     13       3        5    1.0000E+03
      1     23     14       3        6    1.0000E+03
      1     23     15       3        7    1.0000E+03
      1     23     16       3        8    1.0000E+03






   7 GAGING STATIONS WERE SPECIFIED.
     (Lakes are identified by a negative value of the Lake Number)
     RECORDS WILL BE WRITTEN TO SEPARATE OUTPUT FILES REPRESENTED BY FOLLOWING UNIT NUMBERS:

 Stream Gages:
  GAGE #   SEGMENT   REACH   UNIT   OUTTYPE
       3       1       8      39       1
       4       2       1      40       2
       5       2       6      41       3
       6       3       1      42       4
       7       3       8      43       1
 Lake Gages:
  GAGE #    LAKE     UNIT   OUTTYPE
       1      -1     -37       2
       2      -2     -38       2




1
                            STRESS PERIOD NO.    1, LENGTH =   1500.000    
                            -----------------------------------------------

                              NUMBER OF TIME STEPS =   200

                               MULTIPLIER FOR DELT =     1.005

                            INITIAL TIME STEP SIZE =   4.382080    



                         ET SURFACE
 READING ON UNIT   11 WITH FORMAT: (19F6.1)            

         1     2     3     4     5     6     7     8     9    10    11    12    13    14    15    16    17
 .........................................................................................................
   1  160.0 159.0 157.4 155.9 154.3 152.7 151.6 150.8 150.0 149.2 148.4 147.3 145.7 144.1 142.6 141.0 140.0
   2  160.0 159.0 157.4 155.9 154.3 152.7 151.6 150.8 150.0 149.2 148.4 147.3 145.7 144.1 142.6 141.0 140.0
   3  160.0 159.0 157.4 155.9 154.3 152.7 151.6 150.8 150.0 149.2 148.4 147.3 145.7 144.1 142.6 141.0 140.0
   4  160.0 159.0 157.4 155.9 154.3 152.7 151.6 150.8 150.0 149.2 148.4 147.3 145.7 144.1 142.6 141.0 140.0
   5  160.0 159.0 157.4 155.9 154.3 152.7 151.6 150.8 150.0 149.2 148.4 147.3 145.7 144.1 142.6 141.0 140.0
   6  160.0 159.0 157.4 155.9 154.3 152.7 151.6 150.8 150.0 149.2 148.4 147.3 145.7 144.1 142.6 141.0 140.0
   7  160.0 159.0 157.4 155.9 154.3 152.7 105.0 105.0 105.0 105.0 105.0 147.3 145.7 144.1 142.6 141.0 140.0
   8  160.0 159.0 157.4 155.9 154.3 152.7 105.0  95.0  95.0  95.0 105.0 147.3 145.7 144.1 142.6 141.0 140.0
   9  160.0 159.0 157.4 155.9 154.3 152.7 105.0  95.0  95.0  95.0 105.0 147.3 145.7 144.1 142.6 141.0 140.0
  10  160.0 159.0 157.4 155.9 154.3 152.7 105.0  95.0  95.0  95.0 105.0 147.3 145.7 144.1 142.6 141.0 140.0
  11  160.0 159.0 157.4 155.9 154.3 152.7 105.0 105.0 105.0 105.0 105.0 147.3 145.7 144.1 142.6 141.0 140.0
  12  160.0 159.0 157.4 155.9 154.3 152.7 151.6 150.8 150.0 149.2 148.4 147.3 145.7 144.1 142.6 141.0 140.0
  13  160.0 159.0 157.4 155.9 154.3 152.7 151.6 150.8 150.0 149.2 148.4 147.3 145.7 144.1 142.6 141.0 140.0
  14  160.0 159.0 157.4 155.9 154.3 152.7 151.6 150.8 150.0 149.2 148.4 147.3 145.7 144.1 142.6 141.0 140.0
  15  160.0 159.0 157.4 155.9 154.3 152.7 151.6 150.8 150.0 149.2 148.4 147.3 145.7 144.1 142.6 141.0 140.0
  16  160.0 159.0 157.4 155.9 154.3 152.7 151.6 150.8 150.0 149.2 148.4 147.3 145.7 144.1 142.6 141.0 140.0
  17  160.0 159.0 157.4 155.9 154.3 152.7 105.0 105.0 105.0 105.0 105.0 147.3 145.7 144.1 142.6 141.0 140.0
  18  160.0 159.0 157.4 155.9 154.3 152.7 105.0  95.0  95.0  95.0 105.0 147.3 145.7 144.1 142.6 141.0 140.0
  19  160.0 159.0 157.4 155.9 154.3 152.7 105.0  95.0  95.0  95.0 105.0 147.3 145.7 144.1 142.6 141.0 140.0
  20  160.0 159.0 157.4 155.9 154.3 152.7 105.0  95.0  95.0  95.0 105.0 147.3 145.7 144.1 142.6 141.0 140.0
  21  160.0 159.0 157.4 155.9 154.3 152.7 105.0 105.0 105.0 105.0 105.0 147.3 145.7 144.1 142.6 141.0 140.0
  22  160.0 159.0 157.4 155.9 154.3 152.7 151.6 150.8 150.0 149.2 148.4 147.3 145.7 144.1 142.6 141.0 140.0
  23  160.0 159.0 157.4 155.9 154.3 152.7 151.6 150.8 150.0 149.2 148.4 147.3 145.7 144.1 142.6 141.0 140.0
  24  160.0 159.0 157.4 155.9 154.3 152.7 151.6 150.8 150.0 149.2 148.4 147.3 145.7 144.1 142.6 141.0 140.0
  25  160.0 159.0 157.4 155.9 154.3 152.7 151.6 150.8 150.0 149.2 148.4 147.3 145.7 144.1 142.6 141.0 140.0
  26  160.0 159.0 157.4 155.9 154.3 152.7 151.6 150.8 150.0 149.2 148.4 147.3 145.7 144.1 142.6 141.0 140.0
  27  160.0 159.0 157.4 155.9 154.3 152.7 151.6 150.8 150.0 149.2 148.4 147.3 145.7 144.1 142.6 141.0 140.0

  EVAPOTRANSPIRATION RATE =  1.410000E-02

         EXTINCTION DEPTH =   15.0000    

                 RECHARGE =  1.160000E-02



 CLASSIFICATION & COUNT OF STREAM SEGMENTS BASED ON SOURCE OF INFLOW:

                HEADWATER     DIVERSION     RECEIVES TRIBUTARY FLOW
                ---------     ---------     -----------------------
                     1              2               0

                     INPUT DATA FOR EACH STREAM SEGMENT
 ---------------------------------------------------------------------------------------------

 SEGMENT    SEG.     INFLOW   OVERLAND   STREAM    STREAM   ICALC  OUTFLOW  DIVERSION PRIORITY
    NO.    LENGTH     RATE     RUNOFF      ET       PPT.    METH.  TO SEG.  FROM SEG.    NO.

      1  7.250E+03 6.912E+05 0.000E+00 0.000E+00 0.000E+00    1       -1        0        0
      2  5.118E+03 0.000E+00 0.000E+00 0.000E+00 0.000E+00    1       -2       -1        0
      3  7.250E+03 0.000E+00 0.000E+00 0.000E+00 0.000E+00    1        0       -2        0


         STREAMBED PROPERTIES AND STREAM DIMENSIONS

 SEGMENT     BED HYD. COND.      BED THICKNESS     ELEV.-TOP OF BED     WIDTH OF STREAM     DEPTH OF STREAM    STREAM ROUGHNESS
    No.     UPPER     LOWER     UPPER     LOWER     UPPER     LOWER     UPPER     LOWER     UPPER     LOWER   CHANNEL      BANK

     1  5.000E-01 5.000E-01 5.000E-01 5.000E-01 1.245E+02 1.165E+02 5.000E+00 5.000E+00                     5.000E-02
     2  5.000E-01 5.000E-01 5.000E-01 5.000E-01 1.148E+02 1.107E+02 5.000E+00 5.000E+00                     5.000E-02
     3  5.000E-01 5.000E-01 5.000E-01 5.000E-01 1.094E+02 1.026E+02 5.000E+00 5.000E+00                     5.000E-02





 LAKE PACKAGE ACTIVE:  CALCULATED LAKE STAGE FOR EACH TIME STEP WILL BE STORED IN HNEW ARRAY.

 INITIAL LAKE STAGE:  LAKE    STAGE

                        1   130.000
                        2   130.000




 If any subsequent steady-state stress periods, min. and max. stages for each lake will be read in Record 9a.





                      LAKE ID ARRAY FOR LAYER   1
 READING ON UNIT   16 WITH FORMAT: (24I3)              

        1   2   3   4   5   6   7   8   9  10  11  12  13  14  15  16  17
 ........................................................................
   1    0   0   0   0   0   0   0   0   0   0   0   0   0   0   0   0   0
   2    0   0   0   0   0   0   0   0   0   0   0   0   0   0   0   0   0
   3    0   0   0   0   0   0   0   0   0   0   0   0   0   0   0   0   0
   4    0   0   0   0   0   0   0   0   0   0   0   0   0   0   0   0   0
   5    0   0   0   0   0   0   0   0   0   0   0   0   0   0   0   0   0
   6    0   0   0   0   0   0   0   0   0   0   0   0   0   0   0   0   0
   7    0   0   0   0   0   0   1   1   1   1   1   0   0   0   0   0   0
   8    0   0   0   0   0   0   1   1   1   1   1   0   0   0   0   0   0
   9    0   0   0   0   0   0   1   1   1   1   1   0   0   0   0   0   0
  10    0   0   0   0   0   0   1   1   1   1   1   0   0   0   0   0   0
  11    0   0   0   0   0   0   1   1   1   1   1   0   0   0   0   0   0
  12    0   0   0   0   0   0   0   0   0   0   0   0   0   0   0   0   0
  13    0   0   0   0   0   0   0   0   0   0   0   0   0   0   0   0   0
  14    0   0   0   0   0   0   0   0   0   0   0   0   0   0   0   0   0
  15    0   0   0   0   0   0   0   0   0   0   0   0   0   0   0   0   0
  16    0   0   0   0   0   0   0   0   0   0   0   0   0   0   0   0   0
  17    0   0   0   0   0   0   2   2   2   2   2   0   0   0   0   0   0
  18    0   0   0   0   0   0   2   2   2   2   2   0   0   0   0   0   0
  19    0   0   0   0   0   0   2   2   2   2   2   0   0   0   0   0   0
  20    0   0   0   0   0   0   2   2   2   2   2   0   0   0   0   0   0
  21    0   0   0   0   0   0   2   2   2   2   2   0   0   0   0   0   0
  22    0   0   0   0   0   0   0   0   0   0   0   0   0   0   0   0   0
  23    0   0   0   0   0   0   0   0   0   0   0   0   0   0   0   0   0
  24    0   0   0   0   0   0   0   0   0   0   0   0   0   0   0   0   0
  25    0   0   0   0   0   0   0   0   0   0   0   0   0   0   0   0   0
  26    0   0   0   0   0   0   0   0   0   0   0   0   0   0   0   0   0
  27    0   0   0   0   0   0   0   0   0   0   0   0   0   0   0   0   0



                      LAKE ID ARRAY FOR LAYER   2
 READING ON UNIT   16 WITH FORMAT: (24I3)              

        1   2   3   4   5   6   7   8   9  10  11  12  13  14  15  16  17
 ........................................................................
   1    0   0   0   0   0   0   0   0   0   0   0   0   0   0   0   0   0
   2    0   0   0   0   0   0   0   0   0   0   0   0   0   0   0   0   0
   3    0   0   0   0   0   0   0   0   0   0   0   0   0   0   0   0   0
   4    0   0   0   0   0   0   0   0   0   0   0   0   0   0   0   0   0
   5    0   0   0   0   0   0   0   0   0   0   0   0   0   0   0   0   0
   6    0   0   0   0   0   0   0   0   0   0   0   0   0   0   0   0   0
   7    0   0   0   0   0   0   0   0   0   0   0   0   0   0   0   0   0
   8    0   0   0   0   0   0   0   1   1   1   0   0   0   0   0   0   0
   9    0   0   0   0   0   0   0   1   1   1   0   0   0   0   0   0   0
  10    0   0   0   0   0   0   0   1   1   1   0   0   0   0   0   0   0
  11    0   0   0   0   0   0   0   0   0   0   0   0   0   0   0   0   0
  12    0   0   0   0   0   0   0   0   0   0   0   0   0   0   0   0   0
  13    0   0   0   0   0   0   0   0   0   0   0   0   0   0   0   0   0
  14    0   0   0   0   0   0   0   0   0   0   0   0   0   0   0   0   0
  15    0   0   0   0   0   0   0   0   0   0   0   0   0   0   0   0   0
  16    0   0   0   0   0   0   0   0   0   0   0   0   0   0   0   0   0
  17    0   0   0   0   0   0   0   0   0   0   0   0   0   0   0   0   0
  18    0   0   0   0   0   0   0   2   2   2   0   0   0   0   0   0   0
  19    0   0   0   0   0   0   0   2   2   2   0   0   0   0   0   0   0
  20    0   0   0   0   0   0   0   2   2   2   0   0   0   0   0   0   0
  21    0   0   0   0   0   0   0   0   0   0   0   0   0   0   0   0   0
  22    0   0   0   0   0   0   0   0   0   0   0   0   0   0   0   0   0
  23    0   0   0   0   0   0   0   0   0   0   0   0   0   0   0   0   0
  24    0   0   0   0   0   0   0   0   0   0   0   0   0   0   0   0   0
  25    0   0   0   0   0   0   0   0   0   0   0   0   0   0   0   0   0
  26    0   0   0   0   0   0   0   0   0   0   0   0   0   0   0   0   0
  27    0   0   0   0   0   0   0   0   0   0   0   0   0   0   0   0   0

            LAKE ID ARRAY =              0 FOR LAYER   3

            LAKE ID ARRAY =              0 FOR LAYER   4

            LAKE ID ARRAY =              0 FOR LAYER   5





   LAKEBED LEAKANCE ARRAY =  0.100000     FOR LAYER   1

   LAKEBED LEAKANCE ARRAY =  0.100000     FOR LAYER   2

   LAKEBED LEAKANCE ARRAY =  0.100000     FOR LAYER   3

   LAKEBED LEAKANCE ARRAY =  0.100000     FOR LAYER   4

   LAKEBED LEAKANCE ARRAY =  0.100000     FOR LAYER   5

       LOCATIONS, LAKE #, INTERFACE TYPE FOR GRID CELLS ADJACENT TO LAKES:
     -----------------------------------------------------------------------
     LAYER #    ROW #    COLUMN #   LAKE #  INTERFACE TYPE  LAKEBED LEAKANCE
         1         7         6         1         2             0.10000
         1         8         6         1         2             0.10000
         1         9         6         1         2             0.10000
         1        10         6         1         2             0.10000
         1        11         6         1         2             0.10000
         1        17         6         2         2             0.10000
         1        18         6         2         2             0.10000
         1        19         6         2         2             0.10000
         1        20         6         2         2             0.10000
         1        21         6         2         2             0.10000
         1         6         7         1         3             0.10000
         2         7         7         1         6             0.10000
         2         8         7         1         6             0.10000
         2         8         7         1         2             0.10000
         2         9         7         1         6             0.10000
         2         9         7         1         2             0.10000
         2        10         7         1         6             0.10000
         2        10         7         1         2             0.10000
         2        11         7         1         6             0.10000
         1        12         7         1         4             0.10000
         1        16         7         2         3             0.10000
         2        17         7         2         6             0.10000
         2        18         7         2         6             0.10000
         2        18         7         2         2             0.10000
         2        19         7         2         6             0.10000
         2        19         7         2         2             0.10000
         2        20         7         2         6             0.10000
         2        20         7         2         2             0.10000
         2        21         7         2         6             0.10000
         1        22         7         2         4             0.10000
         1         6         8         1         3             0.10000
         2         7         8         1         6             0.10000
         2         7         8         1         3             0.10000
         3         8         8         1         6             0.10000
         3         9         8         1         6             0.10000
         3        10         8         1         6             0.10000
         2        11         8         1         6             0.10000
         2        11         8         1         4             0.10000
         1        12         8         1         4             0.10000
         1        16         8         2         3             0.10000
         2        17         8         2         6             0.10000
         2        17         8         2         3             0.10000
         3        18         8         2         6             0.10000
         3        19         8         2         6             0.10000
         3        20         8         2         6             0.10000
         2        21         8         2         6             0.10000
         2        21         8         2         4             0.10000
         1        22         8         2         4             0.10000
         1         6         9         1         3             0.10000
         2         7         9         1         6             0.10000
         2         7         9         1         3             0.10000
         3         8         9         1         6             0.10000
         3         9         9         1         6             0.10000
         3        10         9         1         6             0.10000
         2        11         9         1         6             0.10000
         2        11         9         1         4             0.10000
         1        12         9         1         4             0.10000
         1        16         9         2         3             0.10000
         2        17         9         2         6             0.10000
         2        17         9         2         3             0.10000
         3        18         9         2         6             0.10000
         3        19         9         2         6             0.10000
         3        20         9         2         6             0.10000
         2        21         9         2         6             0.10000
         2        21         9         2         4             0.10000
         1        22         9         2         4             0.10000
         1         6        10         1         3             0.10000
         2         7        10         1         6             0.10000
         2         7        10         1         3             0.10000
         3         8        10         1         6             0.10000
         3         9        10         1         6             0.10000
         3        10        10         1         6             0.10000
         2        11        10         1         6             0.10000
         2        11        10         1         4             0.10000
         1        12        10         1         4             0.10000
         1        16        10         2         3             0.10000
         2        17        10         2         6             0.10000
         2        17        10         2         3             0.10000
         3        18        10         2         6             0.10000
         3        19        10         2         6             0.10000
         3        20        10         2         6             0.10000
         2        21        10         2         6             0.10000
         2        21        10         2         4             0.10000
         1        22        10         2         4             0.10000
         1         6        11         1         3             0.10000
         2         7        11         1         6             0.10000
         2         8        11         1         6             0.10000
         2         8        11         1         1             0.10000
         2         9        11         1         6             0.10000
         2         9        11         1         1             0.10000
         2        10        11         1         6             0.10000
         2        10        11         1         1             0.10000
         2        11        11         1         6             0.10000
         1        12        11         1         4             0.10000
         1        16        11         2         3             0.10000
         2        17        11         2         6             0.10000
         2        18        11         2         6             0.10000
         2        18        11         2         1             0.10000
         2        19        11         2         6             0.10000
         2        19        11         2         1             0.10000
         2        20        11         2         6             0.10000
         2        20        11         2         1             0.10000
         2        21        11         2         6             0.10000
         1        22        11         2         4             0.10000
         1         7        12         1         1             0.10000
         1         8        12         1         1             0.10000
         1         9        12         1         1             0.10000
         1        10        12         1         1             0.10000
         1        11        12         1         1             0.10000
         1        17        12         2         1             0.10000
         1        18        12         2         1             0.10000
         1        19        12         2         1             0.10000
         1        20        12         2         1             0.10000
         1        21        12         2         1             0.10000

     NUMBER OF LAKE-AQUIFER CELL INTERFACES =   114


 STAGE/VOLUME RELATION FOR LAKE  1

       STAGE       VOLUME         AREA

   9.7000E+01   0.0000E+00   2.2500E+06
   9.7333E+01   7.5000E+05   2.2500E+06
   9.7667E+01   1.5000E+06   2.2500E+06
   9.8000E+01   2.2500E+06   2.2500E+06
   9.8333E+01   3.0000E+06   2.2500E+06
   9.8667E+01   3.7500E+06   2.2500E+06
   9.9000E+01   4.5000E+06   2.2500E+06
   9.9333E+01   5.2500E+06   2.2500E+06
   9.9667E+01   6.0000E+06   2.2500E+06
   1.0000E+02   6.7500E+06   2.2500E+06
   1.0033E+02   7.5000E+06   2.2500E+06
   1.0067E+02   8.2500E+06   2.2500E+06
   1.0100E+02   9.0000E+06   2.2500E+06
   1.0133E+02   9.7500E+06   2.2500E+06
   1.0167E+02   1.0500E+07   2.2500E+06
   1.0200E+02   1.1250E+07   2.2500E+06
   1.0233E+02   1.2000E+07   2.2500E+06
   1.0267E+02   1.2750E+07   2.2500E+06
   1.0300E+02   1.3500E+07   2.2500E+06
   1.0333E+02   1.4250E+07   2.2500E+06
   1.0367E+02   1.5000E+07   2.2500E+06
   1.0400E+02   1.5750E+07   2.2500E+06
   1.0433E+02   1.6500E+07   2.2500E+06
   1.0467E+02   1.7250E+07   2.2500E+06
   1.0500E+02   1.8000E+07   2.2500E+06
   1.0533E+02   1.8750E+07   2.2500E+06
   1.0567E+02   1.9500E+07   2.2500E+06
   1.0600E+02   2.0250E+07   2.2500E+06
   1.0633E+02   2.1000E+07   2.2500E+06
   1.0667E+02   2.1750E+07   2.2500E+06
   1.0700E+02   2.2500E+07   6.2500E+06
   1.0733E+02   2.4583E+07   6.2500E+06
   1.0767E+02   2.6667E+07   6.2500E+06
   1.0800E+02   2.8750E+07   6.2500E+06
   1.0833E+02   3.0833E+07   6.2500E+06
   1.0867E+02   3.2917E+07   6.2500E+06
   1.0900E+02   3.5000E+07   6.2500E+06
   1.0933E+02   3.7083E+07   6.2500E+06
   1.0967E+02   3.9167E+07   6.2500E+06
   1.1000E+02   4.1250E+07   6.2500E+06
   1.1033E+02   4.3333E+07   6.2500E+06
   1.1067E+02   4.5417E+07   6.2500E+06
   1.1100E+02   4.7500E+07   6.2500E+06
   1.1133E+02   4.9583E+07   6.2500E+06
   1.1167E+02   5.1666E+07   6.2500E+06
   1.1200E+02   5.3750E+07   6.2500E+06
   1.1233E+02   5.5833E+07   6.2500E+06
   1.1267E+02   5.7916E+07   6.2500E+06
   1.1300E+02   6.0000E+07   6.2500E+06
   1.1333E+02   6.2083E+07   6.2500E+06
   1.1367E+02   6.4166E+07   6.2500E+06
   1.1400E+02   6.6250E+07   6.2500E+06
   1.1433E+02   6.8333E+07   6.2500E+06
   1.1467E+02   7.0416E+07   6.2500E+06
   1.1500E+02   7.2500E+07   6.2500E+06
   1.1533E+02   7.4583E+07   6.2500E+06
   1.1567E+02   7.6667E+07   6.2500E+06
   1.1600E+02   7.8750E+07   6.2500E+06
   1.1633E+02   8.0833E+07   6.2500E+06
   1.1667E+02   8.2917E+07   6.2500E+06
   1.1700E+02   8.5000E+07   6.2500E+06
   1.1733E+02   8.7084E+07   6.2500E+06
   1.1767E+02   8.9167E+07   6.2500E+06
   1.1800E+02   9.1250E+07   6.2500E+06
   1.1833E+02   9.3334E+07   6.2500E+06
   1.1867E+02   9.5417E+07   6.2500E+06
   1.1900E+02   9.7501E+07   6.2500E+06
   1.1933E+02   9.9584E+07   6.2500E+06
   1.1967E+02   1.0167E+08   6.2500E+06
   1.2000E+02   1.0375E+08   6.2500E+06
   1.2033E+02   1.0583E+08   6.2500E+06
   1.2067E+02   1.0792E+08   6.2500E+06
   1.2100E+02   1.1000E+08   6.2500E+06
   1.2133E+02   1.1208E+08   6.2500E+06
   1.2167E+02   1.1417E+08   6.2500E+06
   1.2200E+02   1.1625E+08   6.2500E+06
   1.2233E+02   1.1833E+08   6.2500E+06
   1.2267E+02   1.2042E+08   6.2500E+06
   1.2300E+02   1.2250E+08   6.2500E+06
   1.2333E+02   1.2458E+08   6.2500E+06
   1.2367E+02   1.2667E+08   6.2500E+06
   1.2400E+02   1.2875E+08   6.2500E+06
   1.2433E+02   1.3083E+08   6.2500E+06
   1.2467E+02   1.3292E+08   6.2500E+06
   1.2500E+02   1.3500E+08   6.2500E+06
   1.2533E+02   1.3708E+08   6.2500E+06
   1.2567E+02   1.3917E+08   6.2500E+06
   1.2600E+02   1.4125E+08   6.2500E+06
   1.2633E+02   1.4333E+08   6.2500E+06
   1.2667E+02   1.4542E+08   6.2500E+06
   1.2700E+02   1.4750E+08   6.2500E+06
   1.2733E+02   1.4958E+08   6.2500E+06
   1.2767E+02   1.5167E+08   6.2500E+06
   1.2800E+02   1.5375E+08   6.2500E+06
   1.2833E+02   1.5583E+08   6.2500E+06
   1.2867E+02   1.5792E+08   6.2500E+06
   1.2900E+02   1.6000E+08   6.2500E+06
   1.2933E+02   1.6208E+08   6.2500E+06
   1.2967E+02   1.6417E+08   6.2500E+06
   1.3000E+02   1.6625E+08   6.2500E+06
   1.3033E+02   1.6833E+08   6.2500E+06
   1.3067E+02   1.7042E+08   6.2500E+06
   1.3100E+02   1.7250E+08   6.2500E+06
   1.3133E+02   1.7458E+08   6.2500E+06
   1.3167E+02   1.7667E+08   6.2500E+06
   1.3200E+02   1.7875E+08   6.2500E+06
   1.3233E+02   1.8083E+08   6.2500E+06
   1.3267E+02   1.8292E+08   6.2500E+06
   1.3300E+02   1.8500E+08   6.2500E+06
   1.3333E+02   1.8708E+08   6.2500E+06
   1.3367E+02   1.8916E+08   6.2500E+06
   1.3400E+02   1.9125E+08   6.2500E+06
   1.3433E+02   1.9333E+08   6.2500E+06
   1.3467E+02   1.9541E+08   6.2500E+06
   1.3500E+02   1.9750E+08   6.2500E+06
   1.3533E+02   1.9958E+08   6.2500E+06
   1.3567E+02   2.0166E+08   6.2500E+06
   1.3600E+02   2.0375E+08   6.2500E+06
   1.3633E+02   2.0583E+08   6.2500E+06
   1.3667E+02   2.0791E+08   6.2500E+06
   1.3700E+02   2.1000E+08   6.2500E+06
   1.3733E+02   2.1208E+08   6.2500E+06
   1.3767E+02   2.1416E+08   6.2500E+06
   1.3800E+02   2.1625E+08   6.2500E+06
   1.3833E+02   2.1833E+08   6.2500E+06
   1.3867E+02   2.2041E+08   6.2500E+06
   1.3900E+02   2.2250E+08   6.2500E+06
   1.3933E+02   2.2458E+08   6.2500E+06
   1.3967E+02   2.2666E+08   6.2500E+06
   1.4000E+02   2.2875E+08   6.2500E+06
   1.4033E+02   2.3083E+08   6.2500E+06
   1.4067E+02   2.3291E+08   6.2500E+06
   1.4100E+02   2.3500E+08   6.2500E+06
   1.4133E+02   2.3708E+08   6.2500E+06
   1.4167E+02   2.3916E+08   6.2500E+06
   1.4200E+02   2.4124E+08   6.2500E+06
   1.4233E+02   2.4333E+08   6.2500E+06
   1.4267E+02   2.4541E+08   6.2500E+06
   1.4300E+02   2.4749E+08   6.2500E+06
   1.4333E+02   2.4958E+08   6.2500E+06
   1.4367E+02   2.5166E+08   6.2500E+06
   1.4400E+02   2.5374E+08   6.2500E+06
   1.4433E+02   2.5583E+08   6.2500E+06
   1.4467E+02   2.5791E+08   6.2500E+06
   1.4500E+02   2.5999E+08   6.2500E+06
   1.4533E+02   2.6208E+08   6.2500E+06
   1.4567E+02   2.6416E+08   6.2500E+06
   1.4600E+02   2.6624E+08   6.2500E+06
   1.4633E+02   2.6833E+08   6.2500E+06
   1.4667E+02   2.7041E+08   6.2500E+06
   1.4700E+02   2.7249E+08   6.2500E+06



 STAGE/VOLUME RELATION FOR LAKE  2

       STAGE       VOLUME         AREA

   9.7000E+01   0.0000E+00   2.2500E+06
   9.7333E+01   7.5000E+05   2.2500E+06
   9.7667E+01   1.5000E+06   2.2500E+06
   9.8000E+01   2.2500E+06   2.2500E+06
   9.8333E+01   3.0000E+06   2.2500E+06
   9.8667E+01   3.7500E+06   2.2500E+06
   9.9000E+01   4.5000E+06   2.2500E+06
   9.9333E+01   5.2500E+06   2.2500E+06
   9.9667E+01   6.0000E+06   2.2500E+06
   1.0000E+02   6.7500E+06   2.2500E+06
   1.0033E+02   7.5000E+06   2.2500E+06
   1.0067E+02   8.2500E+06   2.2500E+06
   1.0100E+02   9.0000E+06   2.2500E+06
   1.0133E+02   9.7500E+06   2.2500E+06
   1.0167E+02   1.0500E+07   2.2500E+06
   1.0200E+02   1.1250E+07   2.2500E+06
   1.0233E+02   1.2000E+07   2.2500E+06
   1.0267E+02   1.2750E+07   2.2500E+06
   1.0300E+02   1.3500E+07   2.2500E+06
   1.0333E+02   1.4250E+07   2.2500E+06
   1.0367E+02   1.5000E+07   2.2500E+06
   1.0400E+02   1.5750E+07   2.2500E+06
   1.0433E+02   1.6500E+07   2.2500E+06
   1.0467E+02   1.7250E+07   2.2500E+06
   1.0500E+02   1.8000E+07   2.2500E+06
   1.0533E+02   1.8750E+07   2.2500E+06
   1.0567E+02   1.9500E+07   2.2500E+06
   1.0600E+02   2.0250E+07   2.2500E+06
   1.0633E+02   2.1000E+07   2.2500E+06
   1.0667E+02   2.1750E+07   2.2500E+06
   1.0700E+02   2.2500E+07   6.2500E+06
   1.0733E+02   2.4583E+07   6.2500E+06
   1.0767E+02   2.6667E+07   6.2500E+06
   1.0800E+02   2.8750E+07   6.2500E+06
   1.0833E+02   3.0833E+07   6.2500E+06
   1.0867E+02   3.2917E+07   6.2500E+06
   1.0900E+02   3.5000E+07   6.2500E+06
   1.0933E+02   3.7083E+07   6.2500E+06
   1.0967E+02   3.9167E+07   6.2500E+06
   1.1000E+02   4.1250E+07   6.2500E+06
   1.1033E+02   4.3333E+07   6.2500E+06
   1.1067E+02   4.5417E+07   6.2500E+06
   1.1100E+02   4.7500E+07   6.2500E+06
   1.1133E+02   4.9583E+07   6.2500E+06
   1.1167E+02   5.1666E+07   6.2500E+06
   1.1200E+02   5.3750E+07   6.2500E+06
   1.1233E+02   5.5833E+07   6.2500E+06
   1.1267E+02   5.7916E+07   6.2500E+06
   1.1300E+02   6.0000E+07   6.2500E+06
   1.1333E+02   6.2083E+07   6.2500E+06
   1.1367E+02   6.4166E+07   6.2500E+06
   1.1400E+02   6.6250E+07   6.2500E+06
   1.1433E+02   6.8333E+07   6.2500E+06
   1.1467E+02   7.0416E+07   6.2500E+06
   1.1500E+02   7.2500E+07   6.2500E+06
   1.1533E+02   7.4583E+07   6.2500E+06
   1.1567E+02   7.6667E+07   6.2500E+06
   1.1600E+02   7.8750E+07   6.2500E+06
   1.1633E+02   8.0833E+07   6.2500E+06
   1.1667E+02   8.2917E+07   6.2500E+06
   1.1700E+02   8.5000E+07   6.2500E+06
   1.1733E+02   8.7084E+07   6.2500E+06
   1.1767E+02   8.9167E+07   6.2500E+06
   1.1800E+02   9.1250E+07   6.2500E+06
   1.1833E+02   9.3334E+07   6.2500E+06
   1.1867E+02   9.5417E+07   6.2500E+06
   1.1900E+02   9.7501E+07   6.2500E+06
   1.1933E+02   9.9584E+07   6.2500E+06
   1.1967E+02   1.0167E+08   6.2500E+06
   1.2000E+02   1.0375E+08   6.2500E+06
   1.2033E+02   1.0583E+08   6.2500E+06
   1.2067E+02   1.0792E+08   6.2500E+06
   1.2100E+02   1.1000E+08   6.2500E+06
   1.2133E+02   1.1208E+08   6.2500E+06
   1.2167E+02   1.1417E+08   6.2500E+06
   1.2200E+02   1.1625E+08   6.2500E+06
   1.2233E+02   1.1833E+08   6.2500E+06
   1.2267E+02   1.2042E+08   6.2500E+06
   1.2300E+02   1.2250E+08   6.2500E+06
   1.2333E+02   1.2458E+08   6.2500E+06
   1.2367E+02   1.2667E+08   6.2500E+06
   1.2400E+02   1.2875E+08   6.2500E+06
   1.2433E+02   1.3083E+08   6.2500E+06
   1.2467E+02   1.3292E+08   6.2500E+06
   1.2500E+02   1.3500E+08   6.2500E+06
   1.2533E+02   1.3708E+08   6.2500E+06
   1.2567E+02   1.3917E+08   6.2500E+06
   1.2600E+02   1.4125E+08   6.2500E+06
   1.2633E+02   1.4333E+08   6.2500E+06
   1.2667E+02   1.4542E+08   6.2500E+06
   1.2700E+02   1.4750E+08   6.2500E+06
   1.2733E+02   1.4958E+08   6.2500E+06
   1.2767E+02   1.5167E+08   6.2500E+06
   1.2800E+02   1.5375E+08   6.2500E+06
   1.2833E+02   1.5583E+08   6.2500E+06
   1.2867E+02   1.5792E+08   6.2500E+06
   1.2900E+02   1.6000E+08   6.2500E+06
   1.2933E+02   1.6208E+08   6.2500E+06
   1.2967E+02   1.6417E+08   6.2500E+06
   1.3000E+02   1.6625E+08   6.2500E+06
   1.3033E+02   1.6833E+08   6.2500E+06
   1.3067E+02   1.7042E+08   6.2500E+06
   1.3100E+02   1.7250E+08   6.2500E+06
   1.3133E+02   1.7458E+08   6.2500E+06
   1.3167E+02   1.7667E+08   6.2500E+06
   1.3200E+02   1.7875E+08   6.2500E+06
   1.3233E+02   1.8083E+08   6.2500E+06
   1.3267E+02   1.8292E+08   6.2500E+06
   1.3300E+02   1.8500E+08   6.2500E+06
   1.3333E+02   1.8708E+08   6.2500E+06
   1.3367E+02   1.8916E+08   6.2500E+06
   1.3400E+02   1.9125E+08   6.2500E+06
   1.3433E+02   1.9333E+08   6.2500E+06
   1.3467E+02   1.9541E+08   6.2500E+06
   1.3500E+02   1.9750E+08   6.2500E+06
   1.3533E+02   1.9958E+08   6.2500E+06
   1.3567E+02   2.0166E+08   6.2500E+06
   1.3600E+02   2.0375E+08   6.2500E+06
   1.3633E+02   2.0583E+08   6.2500E+06
   1.3667E+02   2.0791E+08   6.2500E+06
   1.3700E+02   2.1000E+08   6.2500E+06
   1.3733E+02   2.1208E+08   6.2500E+06
   1.3767E+02   2.1416E+08   6.2500E+06
   1.3800E+02   2.1625E+08   6.2500E+06
   1.3833E+02   2.1833E+08   6.2500E+06
   1.3867E+02   2.2041E+08   6.2500E+06
   1.3900E+02   2.2250E+08   6.2500E+06
   1.3933E+02   2.2458E+08   6.2500E+06
   1.3967E+02   2.2666E+08   6.2500E+06
   1.4000E+02   2.2875E+08   6.2500E+06
   1.4033E+02   2.3083E+08   6.2500E+06
   1.4067E+02   2.3291E+08   6.2500E+06
   1.4100E+02   2.3500E+08   6.2500E+06
   1.4133E+02   2.3708E+08   6.2500E+06
   1.4167E+02   2.3916E+08   6.2500E+06
   1.4200E+02   2.4124E+08   6.2500E+06
   1.4233E+02   2.4333E+08   6.2500E+06
   1.4267E+02   2.4541E+08   6.2500E+06
   1.4300E+02   2.4749E+08   6.2500E+06
   1.4333E+02   2.4958E+08   6.2500E+06
   1.4367E+02   2.5166E+08   6.2500E+06
   1.4400E+02   2.5374E+08   6.2500E+06
   1.4433E+02   2.5583E+08   6.2500E+06
   1.4467E+02   2.5791E+08   6.2500E+06
   1.4500E+02   2.5999E+08   6.2500E+06
   1.4533E+02   2.6208E+08   6.2500E+06
   1.4567E+02   2.6416E+08   6.2500E+06
   1.4600E+02   2.6624E+08   6.2500E+06
   1.4633E+02   2.6833E+08   6.2500E+06
   1.4667E+02   2.7041E+08   6.2500E+06
   1.4700E+02   2.7249E+08   6.2500E+06


 NUMBER OF CONNECTED LAKE SYSTEMS IN SIMULATION IS   0

 LAKE       PRECIP     EVAP     RUNOFF   WITHDRAW   BOTTOM     AREA
----------------------------------------------------------------------
   1     1.160E-02 1.030E-02 0.000E+00  0.000E+00 9.700E+01 6.250E+06
   2     1.160E-02 1.030E-02 0.000E+00  0.000E+00 9.700E+01 6.250E+06




         C               INTERFACE CONDUCTANCES BETWEEN LAKE AND AQUIFER CELLS
   L     O          (IF TYPE = 6, CONDUCTANCE (L^2/T) IS BETWEEN AQUIFER CELL AND OVERLYING LAKE CELL.)
   A     L  L  T    (IF TYPE = 1 TO 4, CONDUCTANCES ARE PER UNIT SATURATED THICKNESS (L/T).)
   Y  R  U  A  Y
   E  O  M  K  P                        LAKEBED      C O N D U C T A N C E S
   R  W  N  E  E     DELTA Y   DELTA X  LEAKANCE   LAKEBED   AQUIFER  COMBINED
 _______________________________________________________________________________
   1  7  6  1  2    5.00E+02  1.00E+03  1.00E-01  5.00E+01  3.00E+01  1.88E+01
   1  8  6  1  2    5.00E+02  1.00E+03  1.00E-01  5.00E+01  3.00E+01  1.88E+01
   1  9  6  1  2    5.00E+02  1.00E+03  1.00E-01  5.00E+01  3.00E+01  1.88E+01
   1 10  6  1  2    5.00E+02  1.00E+03  1.00E-01  5.00E+01  3.00E+01  1.88E+01
   1 11  6  1  2    5.00E+02  1.00E+03  1.00E-01  5.00E+01  3.00E+01  1.88E+01
   1 17  6  2  2    5.00E+02  1.00E+03  1.00E-01  5.00E+01  3.00E+01  1.88E+01
   1 18  6  2  2    5.00E+02  1.00E+03  1.00E-01  5.00E+01  3.00E+01  1.88E+01
   1 19  6  2  2    5.00E+02  1.00E+03  1.00E-01  5.00E+01  3.00E+01  1.88E+01
   1 20  6  2  2    5.00E+02  1.00E+03  1.00E-01  5.00E+01  3.00E+01  1.88E+01
   1 21  6  2  2    5.00E+02  1.00E+03  1.00E-01  5.00E+01  3.00E+01  1.88E+01
   1  6  7  1  3    1.00E+03  5.00E+02  1.00E-01  5.00E+01  3.00E+01  1.88E+01
   2  7  7  1  6    5.00E+02  5.00E+02  1.00E-01  2.50E+04  1.50E+06  2.46E+04
   2  8  7  1  6    5.00E+02  5.00E+02  1.00E-01  2.50E+04  1.50E+06  2.46E+04
   2  8  7  1  2    5.00E+02  5.00E+02  1.00E-01  5.00E+01  6.00E+01  2.73E+01
   2  9  7  1  6    5.00E+02  5.00E+02  1.00E-01  2.50E+04  1.50E+06  2.46E+04
   2  9  7  1  2    5.00E+02  5.00E+02  1.00E-01  5.00E+01  6.00E+01  2.73E+01
   2 10  7  1  6    5.00E+02  5.00E+02  1.00E-01  2.50E+04  1.50E+06  2.46E+04
   2 10  7  1  2    5.00E+02  5.00E+02  1.00E-01  5.00E+01  6.00E+01  2.73E+01
   2 11  7  1  6    5.00E+02  5.00E+02  1.00E-01  2.50E+04  1.50E+06  2.46E+04
   1 12  7  1  4    1.00E+03  5.00E+02  1.00E-01  5.00E+01  3.00E+01  1.88E+01
   1 16  7  2  3    1.00E+03  5.00E+02  1.00E-01  5.00E+01  3.00E+01  1.88E+01
   2 17  7  2  6    5.00E+02  5.00E+02  1.00E-01  2.50E+04  1.50E+06  2.46E+04
   2 18  7  2  6    5.00E+02  5.00E+02  1.00E-01  2.50E+04  1.50E+06  2.46E+04
   2 18  7  2  2    5.00E+02  5.00E+02  1.00E-01  5.00E+01  6.00E+01  2.73E+01
   2 19  7  2  6    5.00E+02  5.00E+02  1.00E-01  2.50E+04  1.50E+06  2.46E+04
   2 19  7  2  2    5.00E+02  5.00E+02  1.00E-01  5.00E+01  6.00E+01  2.73E+01
   2 20  7  2  6    5.00E+02  5.00E+02  1.00E-01  2.50E+04  1.50E+06  2.46E+04
   2 20  7  2  2    5.00E+02  5.00E+02  1.00E-01  5.00E+01  6.00E+01  2.73E+01
   2 21  7  2  6    5.00E+02  5.00E+02  1.00E-01  2.50E+04  1.50E+06  2.46E+04
   1 22  7  2  4    1.00E+03  5.00E+02  1.00E-01  5.00E+01  3.00E+01  1.88E+01
   1  6  8  1  3    1.00E+03  5.00E+02  1.00E-01  5.00E+01  3.00E+01  1.88E+01
   2  7  8  1  6    5.00E+02  5.00E+02  1.00E-01  2.50E+04  1.50E+06  2.46E+04
   2  7  8  1  3    5.00E+02  5.00E+02  1.00E-01  5.00E+01  6.00E+01  2.73E+01
   3  8  8  1  6    5.00E+02  5.00E+02  1.00E-01  2.50E+04  1.50E+06  2.46E+04
   3  9  8  1  6    5.00E+02  5.00E+02  1.00E-01  2.50E+04  1.50E+06  2.46E+04
   3 10  8  1  6    5.00E+02  5.00E+02  1.00E-01  2.50E+04  1.50E+06  2.46E+04
   2 11  8  1  6    5.00E+02  5.00E+02  1.00E-01  2.50E+04  1.50E+06  2.46E+04
   2 11  8  1  4    5.00E+02  5.00E+02  1.00E-01  5.00E+01  6.00E+01  2.73E+01
   1 12  8  1  4    1.00E+03  5.00E+02  1.00E-01  5.00E+01  3.00E+01  1.88E+01
   1 16  8  2  3    1.00E+03  5.00E+02  1.00E-01  5.00E+01  3.00E+01  1.88E+01
   2 17  8  2  6    5.00E+02  5.00E+02  1.00E-01  2.50E+04  1.50E+06  2.46E+04
   2 17  8  2  3    5.00E+02  5.00E+02  1.00E-01  5.00E+01  6.00E+01  2.73E+01
   3 18  8  2  6    5.00E+02  5.00E+02  1.00E-01  2.50E+04  1.50E+06  2.46E+04
   3 19  8  2  6    5.00E+02  5.00E+02  1.00E-01  2.50E+04  1.50E+06  2.46E+04
   3 20  8  2  6    5.00E+02  5.00E+02  1.00E-01  2.50E+04  1.50E+06  2.46E+04
   2 21  8  2  6    5.00E+02  5.00E+02  1.00E-01  2.50E+04  1.50E+06  2.46E+04
   2 21  8  2  4    5.00E+02  5.00E+02  1.00E-01  5.00E+01  6.00E+01  2.73E+01
   1 22  8  2  4    1.00E+03  5.00E+02  1.00E-01  5.00E+01  3.00E+01  1.88E+01
   1  6  9  1  3    1.00E+03  5.00E+02  1.00E-01  5.00E+01  3.00E+01  1.88E+01
   2  7  9  1  6    5.00E+02  5.00E+02  1.00E-01  2.50E+04  1.50E+06  2.46E+04
   2  7  9  1  3    5.00E+02  5.00E+02  1.00E-01  5.00E+01  6.00E+01  2.73E+01
   3  8  9  1  6    5.00E+02  5.00E+02  1.00E-01  2.50E+04  1.50E+06  2.46E+04
   3  9  9  1  6    5.00E+02  5.00E+02  1.00E-01  2.50E+04  1.50E+06  2.46E+04
   3 10  9  1  6    5.00E+02  5.00E+02  1.00E-01  2.50E+04  1.50E+06  2.46E+04
   2 11  9  1  6    5.00E+02  5.00E+02  1.00E-01  2.50E+04  1.50E+06  2.46E+04
   2 11  9  1  4    5.00E+02  5.00E+02  1.00E-01  5.00E+01  6.00E+01  2.73E+01
   1 12  9  1  4    1.00E+03  5.00E+02  1.00E-01  5.00E+01  3.00E+01  1.88E+01
   1 16  9  2  3    1.00E+03  5.00E+02  1.00E-01  5.00E+01  3.00E+01  1.88E+01
   2 17  9  2  6    5.00E+02  5.00E+02  1.00E-01  2.50E+04  1.50E+06  2.46E+04
   2 17  9  2  3    5.00E+02  5.00E+02  1.00E-01  5.00E+01  6.00E+01  2.73E+01
   3 18  9  2  6    5.00E+02  5.00E+02  1.00E-01  2.50E+04  1.50E+06  2.46E+04
   3 19  9  2  6    5.00E+02  5.00E+02  1.00E-01  2.50E+04  1.50E+06  2.46E+04
   3 20  9  2  6    5.00E+02  5.00E+02  1.00E-01  2.50E+04  1.50E+06  2.46E+04
   2 21  9  2  6    5.00E+02  5.00E+02  1.00E-01  2.50E+04  1.50E+06  2.46E+04
   2 21  9  2  4    5.00E+02  5.00E+02  1.00E-01  5.00E+01  6.00E+01  2.73E+01
   1 22  9  2  4    1.00E+03  5.00E+02  1.00E-01  5.00E+01  3.00E+01  1.88E+01
   1  6 10  1  3    1.00E+03  5.00E+02  1.00E-01  5.00E+01  3.00E+01  1.88E+01
   2  7 10  1  6    5.00E+02  5.00E+02  1.00E-01  2.50E+04  1.50E+06  2.46E+04
   2  7 10  1  3    5.00E+02  5.00E+02  1.00E-01  5.00E+01  6.00E+01  2.73E+01
   3  8 10  1  6    5.00E+02  5.00E+02  1.00E-01  2.50E+04  1.50E+06  2.46E+04
   3  9 10  1  6    5.00E+02  5.00E+02  1.00E-01  2.50E+04  1.50E+06  2.46E+04
   3 10 10  1  6    5.00E+02  5.00E+02  1.00E-01  2.50E+04  1.50E+06  2.46E+04
   2 11 10  1  6    5.00E+02  5.00E+02  1.00E-01  2.50E+04  1.50E+06  2.46E+04
   2 11 10  1  4    5.00E+02  5.00E+02  1.00E-01  5.00E+01  6.00E+01  2.73E+01
   1 12 10  1  4    1.00E+03  5.00E+02  1.00E-01  5.00E+01  3.00E+01  1.88E+01
   1 16 10  2  3    1.00E+03  5.00E+02  1.00E-01  5.00E+01  3.00E+01  1.88E+01
   2 17 10  2  6    5.00E+02  5.00E+02  1.00E-01  2.50E+04  1.50E+06  2.46E+04
   2 17 10  2  3    5.00E+02  5.00E+02  1.00E-01  5.00E+01  6.00E+01  2.73E+01
   3 18 10  2  6    5.00E+02  5.00E+02  1.00E-01  2.50E+04  1.50E+06  2.46E+04
   3 19 10  2  6    5.00E+02  5.00E+02  1.00E-01  2.50E+04  1.50E+06  2.46E+04
   3 20 10  2  6    5.00E+02  5.00E+02  1.00E-01  2.50E+04  1.50E+06  2.46E+04
   2 21 10  2  6    5.00E+02  5.00E+02  1.00E-01  2.50E+04  1.50E+06  2.46E+04
   2 21 10  2  4    5.00E+02  5.00E+02  1.00E-01  5.00E+01  6.00E+01  2.73E+01
   1 22 10  2  4    1.00E+03  5.00E+02  1.00E-01  5.00E+01  3.00E+01  1.88E+01
   1  6 11  1  3    1.00E+03  5.00E+02  1.00E-01  5.00E+01  3.00E+01  1.88E+01
   2  7 11  1  6    5.00E+02  5.00E+02  1.00E-01  2.50E+04  1.50E+06  2.46E+04
   2  8 11  1  6    5.00E+02  5.00E+02  1.00E-01  2.50E+04  1.50E+06  2.46E+04
   2  8 11  1  1    5.00E+02  5.00E+02  1.00E-01  5.00E+01  6.00E+01  2.73E+01
   2  9 11  1  6    5.00E+02  5.00E+02  1.00E-01  2.50E+04  1.50E+06  2.46E+04
   2  9 11  1  1    5.00E+02  5.00E+02  1.00E-01  5.00E+01  6.00E+01  2.73E+01
   2 10 11  1  6    5.00E+02  5.00E+02  1.00E-01  2.50E+04  1.50E+06  2.46E+04
   2 10 11  1  1    5.00E+02  5.00E+02  1.00E-01  5.00E+01  6.00E+01  2.73E+01
   2 11 11  1  6    5.00E+02  5.00E+02  1.00E-01  2.50E+04  1.50E+06  2.46E+04
   1 12 11  1  4    1.00E+03  5.00E+02  1.00E-01  5.00E+01  3.00E+01  1.88E+01
   1 16 11  2  3    1.00E+03  5.00E+02  1.00E-01  5.00E+01  3.00E+01  1.88E+01
   2 17 11  2  6    5.00E+02  5.00E+02  1.00E-01  2.50E+04  1.50E+06  2.46E+04
   2 18 11  2  6    5.00E+02  5.00E+02  1.00E-01  2.50E+04  1.50E+06  2.46E+04
   2 18 11  2  1    5.00E+02  5.00E+02  1.00E-01  5.00E+01  6.00E+01  2.73E+01
   2 19 11  2  6    5.00E+02  5.00E+02  1.00E-01  2.50E+04  1.50E+06  2.46E+04
   2 19 11  2  1    5.00E+02  5.00E+02  1.00E-01  5.00E+01  6.00E+01  2.73E+01
   2 20 11  2  6    5.00E+02  5.00E+02  1.00E-01  2.50E+04  1.50E+06  2.46E+04
   2 20 11  2  1    5.00E+02  5.00E+02  1.00E-01  5.00E+01  6.00E+01  2.73E+01
   2 21 11  2  6    5.00E+02  5.00E+02  1.00E-01  2.50E+04  1.50E+06  2.46E+04
   1 22 11  2  4    1.00E+03  5.00E+02  1.00E-01  5.00E+01  3.00E+01  1.88E+01
   1  7 12  1  1    5.00E+02  1.00E+03  1.00E-01  5.00E+01  3.00E+01  1.88E+01
   1  8 12  1  1    5.00E+02  1.00E+03  1.00E-01  5.00E+01  3.00E+01  1.88E+01
   1  9 12  1  1    5.00E+02  1.00E+03  1.00E-01  5.00E+01  3.00E+01  1.88E+01
   1 10 12  1  1    5.00E+02  1.00E+03  1.00E-01  5.00E+01  3.00E+01  1.88E+01
   1 11 12  1  1    5.00E+02  1.00E+03  1.00E-01  5.00E+01  3.00E+01  1.88E+01
   1 17 12  2  1    5.00E+02  1.00E+03  1.00E-01  5.00E+01  3.00E+01  1.88E+01
   1 18 12  2  1    5.00E+02  1.00E+03  1.00E-01  5.00E+01  3.00E+01  1.88E+01
   1 19 12  2  1    5.00E+02  1.00E+03  1.00E-01  5.00E+01  3.00E+01  1.88E+01
   1 20 12  2  1    5.00E+02  1.00E+03  1.00E-01  5.00E+01  3.00E+01  1.88E+01
   1 21 12  2  1    5.00E+02  1.00E+03  1.00E-01  5.00E+01  3.00E+01  1.88E+01


     NOTE: INFORMATION ABOUT CALCULATED LAKE/AQUIFER CONDUCTANCES WHEN USING BCF PACKAGE FOLLOWS: 

 IF WETDRY FLAG NOT TURNED ON, VERTICAL LEAKANCES ARE NOT SAVED:
 THEREFORE, LAKE/AQUIFER CONDUCTANCES ARE BASED SOLELY ON LAKEBED SPECIFICATION




      LAKE     INFLOWING STREAM SEGMENT
         1                  1
         2                  2

 MAXIMUM NUMBER OF STREAMS INFLOWING TO A LAKE IS    1

      LAKE     OUTFLOWING STREAM SEGMENT
         1                  2
         2                  3

 MAXIMUM NUMBER OF STREAMS OUTFLOWING FROM A LAKE IS    1

 
 SOLVING FOR HEAD 

 AVERAGE SEED = 0.00000109
 MINIMUM SEED = 0.00000054

     5 ITERATION PARAMETERS CALCULATED FROM AVERAGE SEED:

  0.000000E+00 0.967686E+00 0.998956E+00 0.999966E+00 0.999999E+00

    12 ITERATIONS FOR TIME STEP   1 IN STRESS PERIOD    1

 HEAD/DRAWDOWN PRINTOUT FLAG = 0     TOTAL BUDGET PRINTOUT FLAG = 1
 CELL-BY-CELL FLOW TERM FLAG = 1

 OUTPUT FLAGS FOR ALL LAYERS ARE THE SAME:
   HEAD    DRAWDOWN  HEAD  DRAWDOWN
 PRINTOUT  PRINTOUT  SAVE    SAVE
 ----------------------------------
     0         0       0       0



 STREAM LISTING     PERIOD      1   STEP        1

 LAYER ROW COL. STREAM  RCH.  FLOW INTO     FLOW TO   FLOW OUT OF   OVRLND.     DIRECT     STREAM       STREAM     STREAM     STREAM   STREAMBED  STREAMBED
                SEG.NO.  NO.  STRM. RCH.    AQUIFER    STRM. RCH.    RUNOFF     PRECIP       ET          HEAD       DEPTH      WIDTH   CONDCTNC.   GRADIENT

   1    2    5     1     1    6.9120E+05  9.1536E+03   6.8205E+05  0.000E+00  0.000E+00  0.000E+00  1.25279E+02  1.331E+00  5.000E+00  5.000E+03  3.661E+00
   1    3    5     1     2    6.8205E+05  9.1004E+03   6.7295E+05  0.000E+00  0.000E+00  0.000E+00  1.24165E+02  1.320E+00  5.000E+00  5.000E+03  3.640E+00
   1    4    5     1     3    6.7295E+05  9.0472E+03   6.6390E+05  0.000E+00  0.000E+00  0.000E+00  1.23051E+02  1.309E+00  5.000E+00  5.000E+03  3.619E+00
   1    4    6     1     4    6.6390E+05  8.9940E+03   6.5490E+05  0.000E+00  0.000E+00  0.000E+00  1.21937E+02  1.299E+00  5.000E+00  5.000E+03  3.598E+00
   1    4    7     1     5    6.5490E+05  4.4771E+03   6.5043E+05  0.000E+00  0.000E+00  0.000E+00  1.21101E+02  1.291E+00  5.000E+00  2.500E+03  3.582E+00
   1    4    8     1     6    6.5043E+05  6.6907E+03   6.4374E+05  0.000E+00  0.000E+00  0.000E+00  1.20405E+02  1.284E+00  5.000E+00  3.750E+03  3.568E+00
   1    5    8     1     7    6.4374E+05  8.8745E+03   6.3486E+05  0.000E+00  0.000E+00  0.000E+00  1.19430E+02  1.275E+00  5.000E+00  5.000E+03  3.550E+00
   1    6    8     1     8    6.3486E+05  8.8214E+03   6.2604E+05  0.000E+00  0.000E+00  0.000E+00  1.18316E+02  1.264E+00  5.000E+00  5.000E+03  3.529E+00
   1   12    9     2     1    1.1046E+07  2.7573E+04   1.1018E+07  0.000E+00  0.000E+00  0.000E+00  1.22135E+02  7.695E+00  5.000E+00  5.000E+03  1.103E+01
   1   13    9     2     2    1.1018E+07  2.5711E+04   1.0992E+07  0.000E+00  0.000E+00  0.000E+00  1.21303E+02  7.684E+00  5.000E+00  5.000E+03  1.028E+01
   1   14   10     2     3    1.0992E+07  1.2756E+04   1.0980E+07  0.000E+00  0.000E+00  0.000E+00  1.20655E+02  7.676E+00  5.000E+00  2.795E+03  9.128E+00
   1   14   10     2     4    1.0980E+07  1.1460E+04   1.0968E+07  0.000E+00  0.000E+00  0.000E+00  1.20192E+02  7.671E+00  5.000E+00  2.795E+03  8.200E+00
   1   15   10     2     5    1.0968E+07  1.8170E+04   1.0950E+07  0.000E+00  0.000E+00  0.000E+00  1.19546E+02  7.665E+00  5.000E+00  5.000E+03  7.268E+00
   1   16   10     2     6    1.0950E+07  1.2807E+04   1.0937E+07  0.000E+00  0.000E+00  0.000E+00  1.18719E+02  7.658E+00  5.000E+00  5.000E+03  5.123E+00
   1   22   10     3     1    1.8175E+07  1.3628E+04   1.8161E+07  0.000E+00  0.000E+00  0.000E+00  1.18903E+02  9.948E+00  5.000E+00  5.000E+03  5.451E+00
   1   23   10     3     2    1.8161E+07  9.2404E+03   1.8152E+07  0.000E+00  0.000E+00  0.000E+00  1.18072E+02  9.944E+00  5.000E+00  3.750E+03  4.928E+00
   1   23   11     3     3    1.8152E+07  4.9958E+03   1.8147E+07  0.000E+00  0.000E+00  0.000E+00  1.17479E+02  9.942E+00  5.000E+00  2.500E+03  3.997E+00
   1   23   12     3     4    1.8147E+07  6.8604E+03   1.8140E+07  0.000E+00  0.000E+00  0.000E+00  1.16767E+02  9.940E+00  5.000E+00  5.000E+03  2.744E+00
   1   23   13     3     5    1.8140E+07  2.5717E+03   1.8138E+07  0.000E+00  0.000E+00  0.000E+00  1.15820E+02  9.938E+00  5.000E+00  5.000E+03  1.029E+00
   1   23   14     3     6    1.8138E+07 -1.7217E+03   1.8139E+07  0.000E+00  0.000E+00  0.000E+00  1.14874E+02  9.938E+00  5.000E+00  5.000E+03 -6.887E-01
   1   23   15     3     7    1.8139E+07 -6.1560E+03   1.8146E+07  0.000E+00  0.000E+00  0.000E+00  1.13929E+02  9.939E+00  5.000E+00  5.000E+03 -2.462E+00
   1   23   16     3     8    1.8146E+07 -1.5849E+04   1.8161E+07  0.000E+00  0.000E+00  0.000E+00  1.12987E+02  9.943E+00  5.000E+00  5.000E+03 -6.340E+00





     0  LAKE CELLS ARE DRY.

 PERIOD     1     TIME STEP     1     TIME STEP LENGTH  4.3821E+00
 PERIOD TIME  4.3821E+00     TOTAL SIMULATION TIME  4.3821E+00


                 HYDROLOGIC BUDGET SUMMARIES FOR SIMULATED LAKES
     (ALL FLUID FLUXES ARE VOLUMES ADDED TO THE LAKE DURING PRESENT TIME STEP)
     -------------------------------------------------------------------------
 LAKE    STAGE         VOLUME     VOL.CHANGE      PRECIP     EVAPORATION        RUNOFF
   1   122.5510     1.1969E+08   -4.6554E+07    3.1770E+05    2.8210E+05    0.0000E+00
   2   124.7664     1.3354E+08   -3.2708E+07    3.1770E+05    2.8210E+05    0.0000E+00

            GROUND WATER            SURFACE WATER        WATER
 LAKE    INFLOW     OUTFLOW      INFLOW     OUTFLOW       USE
   1  0.0000E+00  9.3057E+05  2.7434E+06  4.8403E+07  0.0000E+00
   2  0.0000E+00  1.0267E+06  4.7927E+07  7.9644E+07  0.0000E+00

      CONNECTED LAKE   TIME-STEP         STAGE-CHANGE          PERCENT
 LAKE    INFLUX      SURFACE AREA   TIME STEP  CUMULATIVE    DISCREPANCY
   1   0.0000E+00     6.2500E+06  -7.4490E+00 -7.4490E+00       0.000
   2   0.0000E+00     6.2500E+06  -5.2336E+00 -5.2336E+00       0.000
 --------------------------------------------------------------------------------



            CUMULATIVE HYDROLOGIC BUDGET SUMMARIES FOR SIMULATED LAKES
     (ALL FLUID FLUXES ARE SUMS OF VOLUMES ADDED TO THE LAKE SINCE INITIAL TIME)
     ---------------------------------------------------------------------------
 LAKE       PRECIP       EVAP       RUNOFF
   1     3.1770E+05  2.8210E+05  0.0000E+00
   2     3.1770E+05  2.8210E+05  0.0000E+00

            GROUND WATER            SURFACE WATER
 LAKE    INFLOW     OUTFLOW      INFLOW     OUTFLOW
   1  0.0000E+00  9.3057E+05  2.7434E+06  4.8403E+07
   2  0.0000E+00  1.0267E+06  4.7927E+07  7.9644E+07

         WATER    CONNECTED LAKE   CHANGE       PERCENT
 LAKE     USE         INFLUX       IN VOL.    DISCREPANCY
   1   0.0000E+00   0.0000E+00  -4.6554E+07      0.000
   2   0.0000E+00   0.0000E+00  -3.2708E+07      0.000
 --------------------------------------------------------------------------------

1
  VOLUMETRIC BUDGET FOR ENTIRE MODEL AT END OF TIME STEP  1 IN STRESS PERIOD   1
  ------------------------------------------------------------------------------

     CUMULATIVE VOLUMES      L**3       RATES FOR THIS TIME STEP      L**3/T
     ------------------                 ------------------------

           IN:                                      IN:
           ---                                      ---
             STORAGE =           0.0000               STORAGE =           0.0000
       CONSTANT HEAD =    23378974.0000         CONSTANT HEAD =     5335132.5000
                  ET =           0.0000                    ET =           0.0000
            RECHARGE =    12072629.0000              RECHARGE =     2755000.0000
     SPECIFIED FLOWS =           0.0000       SPECIFIED FLOWS =           0.0000
      STREAM LEAKAGE =      924315.8125        STREAM LEAKAGE =      210930.8594
       LAKE  SEEPAGE =     1957237.5000         LAKE  SEEPAGE =      446645.8125

            TOTAL IN =    38333156.0000              TOTAL IN =     8747709.0000

          OUT:                                     OUT:
          ----                                     ----
             STORAGE =    38229244.0000               STORAGE =     8723996.0000
       CONSTANT HEAD =           0.0000         CONSTANT HEAD =           0.0000
                  ET =           0.0000                    ET =           0.0000
            RECHARGE =           0.0000              RECHARGE =           0.0000
     SPECIFIED FLOWS =           0.0000       SPECIFIED FLOWS =           0.0000
      STREAM LEAKAGE =      103972.3828        STREAM LEAKAGE =       23726.7227
       LAKE  SEEPAGE =           0.0000         LAKE  SEEPAGE =           0.0000

           TOTAL OUT =    38333216.0000             TOTAL OUT =     8747723.0000

            IN - OUT =         -60.0000              IN - OUT =         -14.0000

 PERCENT DISCREPANCY =           0.00     PERCENT DISCREPANCY =           0.00






          TIME SUMMARY AT END OF TIME STEP   1 IN STRESS PERIOD    1
                    SECONDS     MINUTES      HOURS       DAYS        YEARS
                    -----------------------------------------------------------
   TIME STEP LENGTH 3.78612E+05  6310.2      105.17      4.3821     1.19975E-02
 STRESS PERIOD TIME 3.78612E+05  6310.2      105.17      4.3821     1.19975E-02
         TOTAL TIME 3.78612E+05  6310.2      105.17      4.3821     1.19975E-02
1
 
 SOLVING FOR HEAD 
     9 ITERATIONS FOR TIME STEP   2 IN STRESS PERIOD    1

 HEAD/DRAWDOWN PRINTOUT FLAG = 0     TOTAL BUDGET PRINTOUT FLAG = 0
 CELL-BY-CELL FLOW TERM FLAG = 1

 OUTPUT FLAGS FOR ALL LAYERS ARE THE SAME:
   HEAD    DRAWDOWN  HEAD  DRAWDOWN
 PRINTOUT  PRINTOUT  SAVE    SAVE
 ----------------------------------
     0         0       0       0



 STREAM LISTING     PERIOD      1   STEP        2

 LAYER ROW COL. STREAM  RCH.  FLOW INTO     FLOW TO   FLOW OUT OF   OVRLND.     DIRECT     STREAM       STREAM     STREAM     STREAM   STREAMBED  STREAMBED
                SEG.NO.  NO.  STRM. RCH.    AQUIFER    STRM. RCH.    RUNOFF     PRECIP       ET          HEAD       DEPTH      WIDTH   CONDCTNC.   GRADIENT

   1    2    5     1     1    6.9120E+05  9.1536E+03   6.8205E+05  0.000E+00  0.000E+00  0.000E+00  1.25279E+02  1.331E+00  5.000E+00  5.000E+03  3.661E+00
   1    3    5     1     2    6.8205E+05  9.1004E+03   6.7295E+05  0.000E+00  0.000E+00  0.000E+00  1.24165E+02  1.320E+00  5.000E+00  5.000E+03  3.640E+00
   1    4    5     1     3    6.7295E+05  9.0472E+03   6.6390E+05  0.000E+00  0.000E+00  0.000E+00  1.23051E+02  1.309E+00  5.000E+00  5.000E+03  3.619E+00
   1    4    6     1     4    6.6390E+05  8.9940E+03   6.5490E+05  0.000E+00  0.000E+00  0.000E+00  1.21937E+02  1.299E+00  5.000E+00  5.000E+03  3.598E+00
   1    4    7     1     5    6.5490E+05  4.4771E+03   6.5043E+05  0.000E+00  0.000E+00  0.000E+00  1.21101E+02  1.291E+00  5.000E+00  2.500E+03  3.582E+00
   1    4    8     1     6    6.5043E+05  6.6907E+03   6.4374E+05  0.000E+00  0.000E+00  0.000E+00  1.20405E+02  1.284E+00  5.000E+00  3.750E+03  3.568E+00
   1    5    8     1     7    6.4374E+05  8.8745E+03   6.3486E+05  0.000E+00  0.000E+00  0.000E+00  1.19430E+02  1.275E+00  5.000E+00  5.000E+03  3.550E+00
   1    6    8     1     8    6.3486E+05  8.3950E+03   6.2647E+05  0.000E+00  0.000E+00  0.000E+00  1.18316E+02  1.265E+00  5.000E+00  5.000E+03  3.358E+00
   1   12    9     2     1    4.8285E+06  9.6171E+03   4.8188E+06  0.000E+00  0.000E+00  0.000E+00  1.19124E+02  4.684E+00  5.000E+00  5.000E+03  3.847E+00
   1   13    9     2     2    4.8188E+06  8.6376E+03   4.8102E+06  0.000E+00  0.000E+00  0.000E+00  1.18298E+02  4.679E+00  5.000E+00  5.000E+03  3.455E+00
   1   14   10     2     3    4.8102E+06  3.5346E+03   4.8067E+06  0.000E+00  0.000E+00  0.000E+00  1.17655E+02  4.676E+00  5.000E+00  2.795E+03  2.529E+00
   1   14   10     2     4    4.8067E+06  2.2477E+03   4.8044E+06  0.000E+00  0.000E+00  0.000E+00  1.17195E+02  4.674E+00  5.000E+00  2.795E+03  1.608E+00
   1   15   10     2     5    4.8044E+06  2.0377E+03   4.8024E+06  0.000E+00  0.000E+00  0.000E+00  1.16554E+02  4.673E+00  5.000E+00  5.000E+03  8.151E-01
   1   16   10     2     6    4.8024E+06 -3.3694E+03   4.8058E+06  0.000E+00  0.000E+00  0.000E+00  1.15733E+02  4.673E+00  5.000E+00  5.000E+03 -1.348E+00
   1   22   10     3     1    1.4276E+07  4.4124E+03   1.4271E+07  0.000E+00  0.000E+00  0.000E+00  1.17563E+02  8.607E+00  5.000E+00  5.000E+03  1.765E+00
   1   23   10     3     2    1.4271E+07  2.9744E+03   1.4269E+07  0.000E+00  0.000E+00  0.000E+00  1.16734E+02  8.606E+00  5.000E+00  3.750E+03  1.586E+00
   1   23   11     3     3    1.4269E+07  8.9377E+02   1.4268E+07  0.000E+00  0.000E+00  0.000E+00  1.16142E+02  8.605E+00  5.000E+00  2.500E+03  7.150E-01
   1   23   12     3     4    1.4268E+07 -9.6180E+02   1.4269E+07  0.000E+00  0.000E+00  0.000E+00  1.15433E+02  8.605E+00  5.000E+00  5.000E+03 -3.847E-01
   1   23   13     3     5    1.4269E+07 -4.8458E+03   1.4273E+07  0.000E+00  0.000E+00  0.000E+00  1.14488E+02  8.606E+00  5.000E+00  5.000E+03 -1.938E+00
   1   23   14     3     6    1.4273E+07 -8.7589E+03   1.4282E+07  0.000E+00  0.000E+00  0.000E+00  1.13545E+02  8.609E+00  5.000E+00  5.000E+03 -3.504E+00
   1   23   15     3     7    1.4282E+07 -1.3064E+04   1.4295E+07  0.000E+00  0.000E+00  0.000E+00  1.12603E+02  8.613E+00  5.000E+00  5.000E+03 -5.226E+00
   1   23   16     3     8    1.4295E+07 -2.6965E+04   1.4322E+07  0.000E+00  0.000E+00  0.000E+00  1.11664E+02  8.620E+00  5.000E+00  5.000E+03 -1.079E+01





     0  LAKE CELLS ARE DRY.

 PERIOD     1     TIME STEP     2     TIME STEP LENGTH  4.4040E+00
 PERIOD TIME  8.7861E+00     TOTAL SIMULATION TIME  8.7861E+00


                 HYDROLOGIC BUDGET SUMMARIES FOR SIMULATED LAKES
     (ALL FLUID FLUXES ARE VOLUMES ADDED TO THE LAKE DURING PRESENT TIME STEP)
     -------------------------------------------------------------------------
 LAKE    STAGE         VOLUME     VOL.CHANGE      PRECIP     EVAPORATION        RUNOFF
   1   119.5372     1.0086E+08   -1.8837E+07    3.1929E+05    2.8351E+05    0.0000E+00
   2   118.0365     9.1478E+07   -4.2063E+07    3.1929E+05    2.8351E+05    0.0000E+00

            GROUND WATER            SURFACE WATER        WATER
 LAKE    INFLOW     OUTFLOW      INFLOW     OUTFLOW       USE
   1  3.7554E+03  3.7076E+05  2.7590E+06  2.1264E+07  0.0000E+00
   2  4.7121E+03  3.9685E+05  2.1164E+07  6.2871E+07  0.0000E+00

      CONNECTED LAKE   TIME-STEP         STAGE-CHANGE          PERCENT
 LAKE    INFLUX      SURFACE AREA   TIME STEP  CUMULATIVE    DISCREPANCY
   1   0.0000E+00     6.2500E+06  -3.0138E+00 -1.0463E+01       0.000
   2   0.0000E+00     6.2500E+06  -6.7299E+00 -1.1963E+01       0.000
 --------------------------------------------------------------------------------



            CUMULATIVE HYDROLOGIC BUDGET SUMMARIES FOR SIMULATED LAKES
     (ALL FLUID FLUXES ARE SUMS OF VOLUMES ADDED TO THE LAKE SINCE INITIAL TIME)
     ---------------------------------------------------------------------------
 LAKE       PRECIP       EVAP       RUNOFF
   1     6.3699E+05  5.6560E+05  0.0000E+00
   2     6.3699E+05  5.6560E+05  0.0000E+00

            GROUND WATER            SURFACE WATER
 LAKE    INFLOW     OUTFLOW      INFLOW     OUTFLOW
   1  3.7554E+03  1.3013E+06  5.5023E+06  6.9667E+07
   2  4.7121E+03  1.4235E+06  6.9092E+07  1.4252E+08

         WATER    CONNECTED LAKE   CHANGE       PERCENT
 LAKE     USE         INFLUX       IN VOL.    DISCREPANCY
   1   0.0000E+00   0.0000E+00  -6.5391E+07      0.000
   2   0.0000E+00   0.0000E+00  -7.4771E+07      0.000
 --------------------------------------------------------------------------------

 
 SOLVING FOR HEAD 
     9 ITERATIONS FOR TIME STEP   3 IN STRESS PERIOD    1

 HEAD/DRAWDOWN PRINTOUT FLAG = 0     TOTAL BUDGET PRINTOUT FLAG = 0
 CELL-BY-CELL FLOW TERM FLAG = 1

 OUTPUT FLAGS FOR ALL LAYERS ARE THE SAME:
   HEAD    DRAWDOWN  HEAD  DRAWDOWN
 PRINTOUT  PRINTOUT  SAVE    SAVE
 ----------------------------------
     0         0       0       0



 STREAM LISTING     PERIOD      1   STEP        3

 LAYER ROW COL. STREAM  RCH.  FLOW INTO     FLOW TO   FLOW OUT OF   OVRLND.     DIRECT     STREAM       STREAM     STREAM     STREAM   STREAMBED  STREAMBED
                SEG.NO.  NO.  STRM. RCH.    AQUIFER    STRM. RCH.    RUNOFF     PRECIP       ET          HEAD       DEPTH      WIDTH   CONDCTNC.   GRADIENT

   1    2    5     1     1    6.9120E+05  9.1536E+03   6.8205E+05  0.000E+00  0.000E+00  0.000E+00  1.25279E+02  1.331E+00  5.000E+00  5.000E+03  3.661E+00
   1    3    5     1     2    6.8205E+05  9.1004E+03   6.7295E+05  0.000E+00  0.000E+00  0.000E+00  1.24165E+02  1.320E+00  5.000E+00  5.000E+03  3.640E+00
   1    4    5     1     3    6.7295E+05  9.0472E+03   6.6390E+05  0.000E+00  0.000E+00  0.000E+00  1.23051E+02  1.309E+00  5.000E+00  5.000E+03  3.619E+00
   1    4    6     1     4    6.6390E+05  8.9940E+03   6.5490E+05  0.000E+00  0.000E+00  0.000E+00  1.21937E+02  1.299E+00  5.000E+00  5.000E+03  3.598E+00
   1    4    7     1     5    6.5490E+05  4.4771E+03   6.5043E+05  0.000E+00  0.000E+00  0.000E+00  1.21101E+02  1.291E+00  5.000E+00  2.500E+03  3.582E+00
   1    4    8     1     6    6.5043E+05  6.6907E+03   6.4374E+05  0.000E+00  0.000E+00  0.000E+00  1.20405E+02  1.284E+00  5.000E+00  3.750E+03  3.568E+00
   1    5    8     1     7    6.4374E+05  8.8745E+03   6.3486E+05  0.000E+00  0.000E+00  0.000E+00  1.19430E+02  1.275E+00  5.000E+00  5.000E+03  3.550E+00
   1    6    8     1     8    6.3486E+05  6.1941E+03   6.2867E+05  0.000E+00  0.000E+00  0.000E+00  1.18318E+02  1.266E+00  5.000E+00  5.000E+03  2.478E+00
   1   12    9     2     1    2.6245E+06  1.5615E+03   2.6229E+06  0.000E+00  0.000E+00  0.000E+00  1.17690E+02  3.251E+00  5.000E+00  5.000E+03  6.246E-01
   1   13    9     2     2    2.6229E+06  8.5098E+02   2.6221E+06  0.000E+00  0.000E+00  0.000E+00  1.16869E+02  3.250E+00  5.000E+00  5.000E+03  3.404E-01
   1   14   10     2     3    2.6221E+06 -5.1641E+02   2.6226E+06  0.000E+00  0.000E+00  0.000E+00  1.16229E+02  3.250E+00  5.000E+00  2.795E+03 -3.695E-01
   1   14   10     2     4    2.6226E+06 -1.7962E+03   2.6244E+06  0.000E+00  0.000E+00  0.000E+00  1.15771E+02  3.251E+00  5.000E+00  2.795E+03 -1.285E+00
   1   15   10     2     5    2.6244E+06 -5.0343E+03   2.6294E+06  0.000E+00  0.000E+00  0.000E+00  1.15134E+02  3.253E+00  5.000E+00  5.000E+03 -2.014E+00
   1   16   10     2     6    2.6294E+06 -9.7633E+03   2.6392E+06  0.000E+00  0.000E+00  0.000E+00  1.14319E+02  3.259E+00  5.000E+00  5.000E+03 -3.905E+00
   1   22   10     3     1    6.9291E+06 -9.7123E+03   6.9388E+06  0.000E+00  0.000E+00  0.000E+00  1.14537E+02  5.581E+00  5.000E+00  5.000E+03 -3.885E+00
   1   23   10     3     2    6.9388E+06 -8.0211E+03   6.9469E+06  0.000E+00  0.000E+00  0.000E+00  1.13714E+02  5.585E+00  5.000E+00  3.750E+03 -4.278E+00
   1   23   11     3     3    6.9469E+06 -6.5957E+03   6.9535E+06  0.000E+00  0.000E+00  0.000E+00  1.13126E+02  5.589E+00  5.000E+00  2.500E+03 -5.277E+00
   1   23   12     3     4    6.9535E+06 -1.5663E+04   6.9691E+06  0.000E+00  0.000E+00  0.000E+00  1.12422E+02  5.594E+00  5.000E+00  5.000E+03 -6.265E+00
   1   23   13     3     5    6.9691E+06 -1.9173E+04   6.9883E+06  0.000E+00  0.000E+00  0.000E+00  1.11485E+02  5.603E+00  5.000E+00  5.000E+03 -7.669E+00
   1   23   14     3     6    6.9883E+06 -2.2744E+04   7.0110E+06  0.000E+00  0.000E+00  0.000E+00  1.10549E+02  5.613E+00  5.000E+00  5.000E+03 -9.098E+00
   1   23   15     3     7    7.0110E+06 -2.7028E+04   7.0381E+06  0.000E+00  0.000E+00  0.000E+00  1.09615E+02  5.625E+00  5.000E+00  5.000E+03 -1.081E+01
   1   23   16     3     8    7.0381E+06 -4.4512E+04   7.0826E+06  0.000E+00  0.000E+00  0.000E+00  1.08686E+02  5.642E+00  5.000E+00  5.000E+03 -1.780E+01





     0  LAKE CELLS ARE DRY.

 PERIOD     1     TIME STEP     3     TIME STEP LENGTH  4.4260E+00
 PERIOD TIME  1.3212E+01     TOTAL SIMULATION TIME  1.3212E+01


                 HYDROLOGIC BUDGET SUMMARIES FOR SIMULATED LAKES
     (ALL FLUID FLUXES ARE VOLUMES ADDED TO THE LAKE DURING PRESENT TIME STEP)
     -------------------------------------------------------------------------
 LAKE    STAGE         VOLUME     VOL.CHANGE      PRECIP     EVAPORATION        RUNOFF
   1   118.1013     9.1883E+07   -8.9748E+06    3.2089E+05    2.8492E+05    0.0000E+00
   2   115.0074     7.2545E+07   -1.8932E+07    3.2089E+05    2.8492E+05    0.0000E+00

            GROUND WATER            SURFACE WATER        WATER
 LAKE    INFLOW     OUTFLOW      INFLOW     OUTFLOW       USE
   1  1.4435E+03  1.7876E+05  2.7825E+06  1.1616E+07  0.0000E+00
   2  2.1401E+04  2.3743E+03  1.1681E+07  3.0668E+07  0.0000E+00

      CONNECTED LAKE   TIME-STEP         STAGE-CHANGE          PERCENT
 LAKE    INFLUX      SURFACE AREA   TIME STEP  CUMULATIVE    DISCREPANCY
   1   0.0000E+00     6.2500E+06  -1.4359E+00 -1.1899E+01       0.000
   2   0.0000E+00     6.2500E+06  -3.0291E+00 -1.4993E+01       0.000
 --------------------------------------------------------------------------------



            CUMULATIVE HYDROLOGIC BUDGET SUMMARIES FOR SIMULATED LAKES
     (ALL FLUID FLUXES ARE SUMS OF VOLUMES ADDED TO THE LAKE SINCE INITIAL TIME)
     ---------------------------------------------------------------------------
 LAKE       PRECIP       EVAP       RUNOFF
   1     9.5788E+05  8.5053E+05  0.0000E+00
   2     9.5788E+05  8.5053E+05  0.0000E+00

            GROUND WATER            SURFACE WATER
 LAKE    INFLOW     OUTFLOW      INFLOW     OUTFLOW
   1  5.1990E+03  1.4801E+06  8.2848E+06  8.1283E+07
   2  2.6113E+04  1.4259E+06  8.0773E+07  1.7318E+08

         WATER    CONNECTED LAKE   CHANGE       PERCENT
 LAKE     USE         INFLUX       IN VOL.    DISCREPANCY
   1   0.0000E+00   0.0000E+00  -7.4366E+07      0.000
   2   0.0000E+00   0.0000E+00  -9.3703E+07      0.000
 --------------------------------------------------------------------------------

 
 SOLVING FOR HEAD 
     8 ITERATIONS FOR TIME STEP   4 IN STRESS PERIOD    1

 HEAD/DRAWDOWN PRINTOUT FLAG = 0     TOTAL BUDGET PRINTOUT FLAG = 0
 CELL-BY-CELL FLOW TERM FLAG = 1

 OUTPUT FLAGS FOR ALL LAYERS ARE THE SAME:
   HEAD    DRAWDOWN  HEAD  DRAWDOWN
 PRINTOUT  PRINTOUT  SAVE    SAVE
 ----------------------------------
     0         0       0       0



 STREAM LISTING     PERIOD      1   STEP        4

 LAYER ROW COL. STREAM  RCH.  FLOW INTO     FLOW TO   FLOW OUT OF   OVRLND.     DIRECT     STREAM       STREAM     STREAM     STREAM   STREAMBED  STREAMBED
                SEG.NO.  NO.  STRM. RCH.    AQUIFER    STRM. RCH.    RUNOFF     PRECIP       ET          HEAD       DEPTH      WIDTH   CONDCTNC.   GRADIENT

   1    2    5     1     1    6.9120E+05  6.7594E+03   6.8444E+05  0.000E+00  0.000E+00  0.000E+00  1.25280E+02  1.332E+00  5.000E+00  5.000E+03  2.704E+00
   1    3    5     1     2    6.8444E+05  9.1143E+03   6.7533E+05  0.000E+00  0.000E+00  0.000E+00  1.24168E+02  1.323E+00  5.000E+00  5.000E+03  3.646E+00
   1    4    5     1     3    6.7533E+05  9.0611E+03   6.6627E+05  0.000E+00  0.000E+00  0.000E+00  1.23054E+02  1.312E+00  5.000E+00  5.000E+03  3.624E+00
   1    4    6     1     4    6.6627E+05  9.0080E+03   6.5726E+05  0.000E+00  0.000E+00  0.000E+00  1.21940E+02  1.302E+00  5.000E+00  5.000E+03  3.603E+00
   1    4    7     1     5    6.5726E+05  4.4840E+03   6.5277E+05  0.000E+00  0.000E+00  0.000E+00  1.21104E+02  1.294E+00  5.000E+00  2.500E+03  3.587E+00
   1    4    8     1     6    6.5277E+05  6.7012E+03   6.4607E+05  0.000E+00  0.000E+00  0.000E+00  1.20408E+02  1.287E+00  5.000E+00  3.750E+03  3.574E+00
   1    5    8     1     7    6.4607E+05  8.8884E+03   6.3718E+05  0.000E+00  0.000E+00  0.000E+00  1.19433E+02  1.278E+00  5.000E+00  5.000E+03  3.555E+00
   1    6    8     1     8    6.3718E+05  4.6279E+03   6.3256E+05  0.000E+00  0.000E+00  0.000E+00  1.18321E+02  1.270E+00  5.000E+00  5.000E+03  1.851E+00
   1   12    9     2     1    1.6877E+06 -2.3456E+03   1.6901E+06  0.000E+00  0.000E+00  0.000E+00  1.16935E+02  2.496E+00  5.000E+00  5.000E+03 -9.382E-01
   1   13    9     2     2    1.6901E+06 -3.0616E+03   1.6931E+06  0.000E+00  0.000E+00  0.000E+00  1.16117E+02  2.498E+00  5.000E+00  5.000E+03 -1.225E+00
   1   14   10     2     3    1.6931E+06 -2.4543E+03   1.6956E+06  0.000E+00  0.000E+00  0.000E+00  1.15480E+02  2.501E+00  5.000E+00  2.795E+03 -1.756E+00
   1   14   10     2     4    1.6956E+06 -3.7288E+03   1.6993E+06  0.000E+00  0.000E+00  0.000E+00  1.15024E+02  2.503E+00  5.000E+00  2.795E+03 -2.668E+00
   1   15   10     2     5    1.6993E+06 -8.3785E+03   1.7077E+06  0.000E+00  0.000E+00  0.000E+00  1.14390E+02  2.509E+00  5.000E+00  5.000E+03 -3.351E+00
   1   16   10     2     6    1.7077E+06 -1.2254E+04   1.7200E+06  0.000E+00  0.000E+00  0.000E+00  1.13578E+02  2.518E+00  5.000E+00  5.000E+03 -4.902E+00
   1   22   10     3     1    3.9864E+06 -1.5531E+04   4.0019E+06  0.000E+00  0.000E+00  0.000E+00  1.12964E+02  4.009E+00  5.000E+00  5.000E+03 -6.212E+00
   1   23   10     3     2    4.0019E+06 -1.3026E+04   4.0149E+06  0.000E+00  0.000E+00  0.000E+00  1.12145E+02  4.017E+00  5.000E+00  3.750E+03 -6.947E+00
   1   23   11     3     3    4.0149E+06 -1.0094E+04   4.0250E+06  0.000E+00  0.000E+00  0.000E+00  1.11561E+02  4.024E+00  5.000E+00  2.500E+03 -8.075E+00
   1   23   12     3     4    4.0250E+06 -2.2496E+04   4.0475E+06  0.000E+00  0.000E+00  0.000E+00  1.10862E+02  4.034E+00  5.000E+00  5.000E+03 -8.998E+00
   1   23   13     3     5    4.0475E+06 -2.5690E+04   4.0732E+06  0.000E+00  0.000E+00  0.000E+00  1.09930E+02  4.048E+00  5.000E+00  5.000E+03 -1.028E+01
   1   23   14     3     6    4.0732E+06 -2.8980E+04   4.1022E+06  0.000E+00  0.000E+00  0.000E+00  1.09001E+02  4.065E+00  5.000E+00  5.000E+03 -1.159E+01
   1   23   15     3     7    4.1022E+06 -3.3354E+04   4.1355E+06  0.000E+00  0.000E+00  0.000E+00  1.08073E+02  4.083E+00  5.000E+00  5.000E+03 -1.334E+01
   1   23   16     3     8    4.1355E+06 -5.3945E+04   4.1895E+06  0.000E+00  0.000E+00  0.000E+00  1.07154E+02  4.109E+00  5.000E+00  5.000E+03 -2.158E+01





     0  LAKE CELLS ARE DRY.

 PERIOD     1     TIME STEP     4     TIME STEP LENGTH  4.4481E+00
 PERIOD TIME  1.7660E+01     TOTAL SIMULATION TIME  1.7660E+01


                 HYDROLOGIC BUDGET SUMMARIES FOR SIMULATED LAKES
     (ALL FLUID FLUXES ARE VOLUMES ADDED TO THE LAKE DURING PRESENT TIME STEP)
     -------------------------------------------------------------------------
 LAKE    STAGE         VOLUME     VOL.CHANGE      PRECIP     EVAPORATION        RUNOFF
   1   117.3447     8.7153E+07   -4.7292E+06    3.2249E+05    2.8635E+05    0.0000E+00
   2   113.4325     6.2702E+07   -9.8433E+06    3.2249E+05    2.8635E+05    0.0000E+00

            GROUND WATER            SURFACE WATER        WATER
 LAKE    INFLOW     OUTFLOW      INFLOW     OUTFLOW       USE
   1  1.0055E+03  7.2765E+04  2.8137E+06  7.5073E+06  0.0000E+00
   2  2.0189E+05  0.0000E+00  7.6506E+06  1.7732E+07  0.0000E+00

      CONNECTED LAKE   TIME-STEP         STAGE-CHANGE          PERCENT
 LAKE    INFLUX      SURFACE AREA   TIME STEP  CUMULATIVE    DISCREPANCY
   1   0.0000E+00     6.2500E+06  -7.5665E-01 -1.2655E+01       0.000
   2   0.0000E+00     6.2500E+06  -1.5749E+00 -1.6568E+01       0.000
 --------------------------------------------------------------------------------



            CUMULATIVE HYDROLOGIC BUDGET SUMMARIES FOR SIMULATED LAKES
     (ALL FLUID FLUXES ARE SUMS OF VOLUMES ADDED TO THE LAKE SINCE INITIAL TIME)
     ---------------------------------------------------------------------------
 LAKE       PRECIP       EVAP       RUNOFF
   1     1.2804E+06  1.1369E+06  0.0000E+00
   2     1.2804E+06  1.1369E+06  0.0000E+00

            GROUND WATER            SURFACE WATER
 LAKE    INFLOW     OUTFLOW      INFLOW     OUTFLOW
   1  6.2045E+03  1.5529E+06  1.1099E+07  8.8790E+07
   2  2.2801E+05  1.4259E+06  8.8423E+07  1.9092E+08

         WATER    CONNECTED LAKE   CHANGE       PERCENT
 LAKE     USE         INFLUX       IN VOL.    DISCREPANCY
   1   0.0000E+00   0.0000E+00  -7.9095E+07      0.000
   2   0.0000E+00   0.0000E+00  -1.0355E+08      0.000
 --------------------------------------------------------------------------------

 
 SOLVING FOR HEAD 
     8 ITERATIONS FOR TIME STEP   5 IN STRESS PERIOD    1

 HEAD/DRAWDOWN PRINTOUT FLAG = 0     TOTAL BUDGET PRINTOUT FLAG = 0
 CELL-BY-CELL FLOW TERM FLAG = 1

 OUTPUT FLAGS FOR ALL LAYERS ARE THE SAME:
   HEAD    DRAWDOWN  HEAD  DRAWDOWN
 PRINTOUT  PRINTOUT  SAVE    SAVE
 ----------------------------------
     0         0       0       0



 STREAM LISTING     PERIOD      1   STEP        5

 LAYER ROW COL. STREAM  RCH.  FLOW INTO     FLOW TO   FLOW OUT OF   OVRLND.     DIRECT     STREAM       STREAM     STREAM     STREAM   STREAMBED  STREAMBED
                SEG.NO.  NO.  STRM. RCH.    AQUIFER    STRM. RCH.    RUNOFF     PRECIP       ET          HEAD       DEPTH      WIDTH   CONDCTNC.   GRADIENT

   1    2    5     1     1    6.9120E+05 -2.0396E+03   6.9324E+05  0.000E+00  0.000E+00  0.000E+00  1.25285E+02  1.337E+00  5.000E+00  5.000E+03 -8.158E-01
   1    3    5     1     2    6.9324E+05  9.1654E+03   6.8407E+05  0.000E+00  0.000E+00  0.000E+00  1.24178E+02  1.333E+00  5.000E+00  5.000E+03  3.666E+00
   1    4    5     1     3    6.8407E+05  9.1122E+03   6.7496E+05  0.000E+00  0.000E+00  0.000E+00  1.23064E+02  1.322E+00  5.000E+00  5.000E+03  3.645E+00
   1    4    6     1     4    6.7496E+05  9.0590E+03   6.6590E+05  0.000E+00  0.000E+00  0.000E+00  1.21950E+02  1.312E+00  5.000E+00  5.000E+03  3.624E+00
   1    4    7     1     5    6.6590E+05  4.5095E+03   6.6139E+05  0.000E+00  0.000E+00  0.000E+00  1.21114E+02  1.304E+00  5.000E+00  2.500E+03  3.608E+00
   1    4    8     1     6    6.6139E+05  6.7394E+03   6.5465E+05  0.000E+00  0.000E+00  0.000E+00  1.20418E+02  1.297E+00  5.000E+00  3.750E+03  3.594E+00
   1    5    8     1     7    6.5465E+05  8.9394E+03   6.4571E+05  0.000E+00  0.000E+00  0.000E+00  1.19443E+02  1.288E+00  5.000E+00  5.000E+03  3.576E+00
   1    6    8     1     8    6.4571E+05  3.4598E+03   6.4225E+05  0.000E+00  0.000E+00  0.000E+00  1.18332E+02  1.281E+00  5.000E+00  5.000E+03  1.384E+00
   1   12    9     2     1    1.2392E+06 -4.3481E+03   1.2435E+06  0.000E+00  0.000E+00  0.000E+00  1.16514E+02  2.075E+00  5.000E+00  5.000E+03 -1.739E+00
   1   13    9     2     2    1.2435E+06 -5.1944E+03   1.2487E+06  0.000E+00  0.000E+00  0.000E+00  1.15699E+02  2.080E+00  5.000E+00  5.000E+03 -2.078E+00
   1   14   10     2     3    1.2487E+06 -3.4498E+03   1.2522E+06  0.000E+00  0.000E+00  0.000E+00  1.15063E+02  2.084E+00  5.000E+00  2.795E+03 -2.469E+00
   1   14   10     2     4    1.2522E+06 -4.7206E+03   1.2569E+06  0.000E+00  0.000E+00  0.000E+00  1.14609E+02  2.088E+00  5.000E+00  2.795E+03 -3.378E+00
   1   15   10     2     5    1.2569E+06 -1.0045E+04   1.2670E+06  0.000E+00  0.000E+00  0.000E+00  1.13976E+02  2.095E+00  5.000E+00  5.000E+03 -4.018E+00
   1   16   10     2     6    1.2670E+06 -1.3072E+04   1.2800E+06  0.000E+00  0.000E+00  0.000E+00  1.13167E+02  2.107E+00  5.000E+00  5.000E+03 -5.229E+00
   1   22   10     3     1    2.6110E+06 -1.7842E+04   2.6289E+06  0.000E+00  0.000E+00  0.000E+00  1.12068E+02  3.113E+00  5.000E+00  5.000E+03 -7.137E+00
   1   23   10     3     2    2.6289E+06 -1.5374E+04   2.6442E+06  0.000E+00  0.000E+00  0.000E+00  1.11252E+02  3.124E+00  5.000E+00  3.750E+03 -8.199E+00
   1   23   11     3     3    2.6442E+06 -1.1758E+04   2.6560E+06  0.000E+00  0.000E+00  0.000E+00  1.10671E+02  3.134E+00  5.000E+00  2.500E+03 -9.406E+00
   1   23   12     3     4    2.6560E+06 -2.5742E+04   2.6817E+06  0.000E+00  0.000E+00  0.000E+00  1.09975E+02  3.147E+00  5.000E+00  5.000E+03 -1.030E+01
   1   23   13     3     5    2.6817E+06 -2.8672E+04   2.7104E+06  0.000E+00  0.000E+00  0.000E+00  1.09048E+02  3.167E+00  5.000E+00  5.000E+03 -1.147E+01
   1   23   14     3     6    2.7104E+06 -3.1736E+04   2.7421E+06  0.000E+00  0.000E+00  0.000E+00  1.08124E+02  3.188E+00  5.000E+00  5.000E+03 -1.269E+01
   1   23   15     3     7    2.7421E+06 -3.6286E+04   2.7784E+06  0.000E+00  0.000E+00  0.000E+00  1.07202E+02  3.212E+00  5.000E+00  5.000E+03 -1.451E+01
   1   23   16     3     8    2.7784E+06 -5.9593E+04   2.8380E+06  0.000E+00  0.000E+00  0.000E+00  1.06289E+02  3.245E+00  5.000E+00  5.000E+03 -2.384E+01





     0  LAKE CELLS ARE DRY.

 PERIOD     1     TIME STEP     5     TIME STEP LENGTH  4.4704E+00
 PERIOD TIME  2.2131E+01     TOTAL SIMULATION TIME  2.2131E+01


                 HYDROLOGIC BUDGET SUMMARIES FOR SIMULATED LAKES
     (ALL FLUID FLUXES ARE VOLUMES ADDED TO THE LAKE DURING PRESENT TIME STEP)
     -------------------------------------------------------------------------
 LAKE    STAGE         VOLUME     VOL.CHANGE      PRECIP     EVAPORATION        RUNOFF
   1   116.9225     8.4515E+07   -2.6384E+06    3.2410E+05    2.8778E+05    0.0000E+00
   2   112.5347     5.7091E+07   -5.6109E+06    3.2410E+05    2.8778E+05    0.0000E+00

            GROUND WATER            SURFACE WATER        WATER
 LAKE    INFLOW     OUTFLOW      INFLOW     OUTFLOW       USE
   1  5.4039E+03  1.1588E+04  2.8711E+06  5.5397E+06  0.0000E+00
   2  3.0280E+05  0.0000E+00  5.7222E+06  1.1672E+07  0.0000E+00

      CONNECTED LAKE   TIME-STEP         STAGE-CHANGE          PERCENT
 LAKE    INFLUX      SURFACE AREA   TIME STEP  CUMULATIVE    DISCREPANCY
   1   0.0000E+00     6.2500E+06  -4.2214E-01 -1.3077E+01       0.000
   2   0.0000E+00     6.2500E+06  -8.9776E-01 -1.7465E+01       0.000
 --------------------------------------------------------------------------------



            CUMULATIVE HYDROLOGIC BUDGET SUMMARIES FOR SIMULATED LAKES
     (ALL FLUID FLUXES ARE SUMS OF VOLUMES ADDED TO THE LAKE SINCE INITIAL TIME)
     ---------------------------------------------------------------------------
 LAKE       PRECIP       EVAP       RUNOFF
   1     1.6045E+06  1.4247E+06  0.0000E+00
   2     1.6045E+06  1.4247E+06  0.0000E+00

            GROUND WATER            SURFACE WATER
 LAKE    INFLOW     OUTFLOW      INFLOW     OUTFLOW
   1  1.1608E+04  1.5644E+06  1.3970E+07  9.4330E+07
   2  5.3081E+05  1.4259E+06  9.4146E+07  2.0259E+08

         WATER    CONNECTED LAKE   CHANGE       PERCENT
 LAKE     USE         INFLUX       IN VOL.    DISCREPANCY
   1   0.0000E+00   0.0000E+00  -8.1733E+07      0.000
   2   0.0000E+00   0.0000E+00  -1.0916E+08      0.000
 --------------------------------------------------------------------------------

 
 SOLVING FOR HEAD 
     8 ITERATIONS FOR TIME STEP   6 IN STRESS PERIOD    1

 HEAD/DRAWDOWN PRINTOUT FLAG = 0     TOTAL BUDGET PRINTOUT FLAG = 0
 CELL-BY-CELL FLOW TERM FLAG = 1

 OUTPUT FLAGS FOR ALL LAYERS ARE THE SAME:
   HEAD    DRAWDOWN  HEAD  DRAWDOWN
 PRINTOUT  PRINTOUT  SAVE    SAVE
 ----------------------------------
     0         0       0       0



 STREAM LISTING     PERIOD      1   STEP        6

 LAYER ROW COL. STREAM  RCH.  FLOW INTO     FLOW TO   FLOW OUT OF   OVRLND.     DIRECT     STREAM       STREAM     STREAM     STREAM   STREAMBED  STREAMBED
                SEG.NO.  NO.  STRM. RCH.    AQUIFER    STRM. RCH.    RUNOFF     PRECIP       ET          HEAD       DEPTH      WIDTH   CONDCTNC.   GRADIENT

   1    2    5     1     1    6.9120E+05 -9.6744E+03   7.0087E+05  0.000E+00  0.000E+00  0.000E+00  1.25290E+02  1.342E+00  5.000E+00  5.000E+03 -3.870E+00
   1    3    5     1     2    7.0087E+05  9.2095E+03   6.9166E+05  0.000E+00  0.000E+00  0.000E+00  1.24187E+02  1.342E+00  5.000E+00  5.000E+03  3.684E+00
   1    4    5     1     3    6.9166E+05  9.1563E+03   6.8251E+05  0.000E+00  0.000E+00  0.000E+00  1.23073E+02  1.331E+00  5.000E+00  5.000E+03  3.663E+00
   1    4    6     1     4    6.8251E+05  9.1031E+03   6.7341E+05  0.000E+00  0.000E+00  0.000E+00  1.21959E+02  1.321E+00  5.000E+00  5.000E+03  3.641E+00
   1    4    7     1     5    6.7341E+05  4.5316E+03   6.6887E+05  0.000E+00  0.000E+00  0.000E+00  1.21123E+02  1.313E+00  5.000E+00  2.500E+03  3.625E+00
   1    4    8     1     6    6.6887E+05  6.7724E+03   6.6210E+05  0.000E+00  0.000E+00  0.000E+00  1.20427E+02  1.306E+00  5.000E+00  3.750E+03  3.612E+00
   1    5    8     1     7    6.6210E+05  7.8590E+03   6.5424E+05  0.000E+00  0.000E+00  0.000E+00  1.19453E+02  1.297E+00  5.000E+00  5.000E+03  3.144E+00
   1    6    8     1     8    6.5424E+05  2.5167E+03   6.5173E+05  0.000E+00  0.000E+00  0.000E+00  1.18343E+02  1.291E+00  5.000E+00  5.000E+03  1.007E+00
   1   12    9     2     1    1.0066E+06 -5.4345E+03   1.0120E+06  0.000E+00  0.000E+00  0.000E+00  1.16272E+02  1.833E+00  5.000E+00  5.000E+03 -2.174E+00
   1   13    9     2     2    1.0120E+06 -6.4660E+03   1.0185E+06  0.000E+00  0.000E+00  0.000E+00  1.15458E+02  1.839E+00  5.000E+00  5.000E+03 -2.586E+00
   1   14   10     2     3    1.0185E+06 -4.0075E+03   1.0225E+06  0.000E+00  0.000E+00  0.000E+00  1.14824E+02  1.845E+00  5.000E+00  2.795E+03 -2.868E+00
   1   14   10     2     4    1.0225E+06 -5.2756E+03   1.0278E+06  0.000E+00  0.000E+00  0.000E+00  1.14370E+02  1.850E+00  5.000E+00  2.795E+03 -3.775E+00
   1   15   10     2     5    1.0278E+06 -1.0924E+04   1.0387E+06  0.000E+00  0.000E+00  0.000E+00  1.13739E+02  1.858E+00  5.000E+00  5.000E+03 -4.370E+00
   1   16   10     2     6    1.0387E+06 -1.3168E+04   1.0518E+06  0.000E+00  0.000E+00  0.000E+00  1.12932E+02  1.871E+00  5.000E+00  5.000E+03 -5.267E+00
   1   22   10     3     1    1.8958E+06 -1.8581E+04   1.9144E+06  0.000E+00  0.000E+00  0.000E+00  1.11527E+02  2.571E+00  5.000E+00  5.000E+03 -7.432E+00
   1   23   10     3     2    1.9144E+06 -1.6447E+04   1.9308E+06  0.000E+00  0.000E+00  0.000E+00  1.10713E+02  2.585E+00  5.000E+00  3.750E+03 -8.772E+00
   1   23   11     3     3    1.9308E+06 -1.2502E+04   1.9433E+06  0.000E+00  0.000E+00  0.000E+00  1.10134E+02  2.597E+00  5.000E+00  2.500E+03 -1.000E+01
   1   23   12     3     4    1.9433E+06 -2.7202E+04   1.9706E+06  0.000E+00  0.000E+00  0.000E+00  1.09440E+02  2.613E+00  5.000E+00  5.000E+03 -1.088E+01
   1   23   13     3     5    1.9706E+06 -2.9916E+04   2.0005E+06  0.000E+00  0.000E+00  0.000E+00  1.08517E+02  2.636E+00  5.000E+00  5.000E+03 -1.197E+01
   1   23   14     3     6    2.0005E+06 -3.2802E+04   2.0333E+06  0.000E+00  0.000E+00  0.000E+00  1.07596E+02  2.660E+00  5.000E+00  5.000E+03 -1.312E+01
   1   23   15     3     7    2.0333E+06 -3.7593E+04   2.0709E+06  0.000E+00  0.000E+00  0.000E+00  1.06678E+02  2.688E+00  5.000E+00  5.000E+03 -1.504E+01
   1   23   16     3     8    2.0709E+06 -6.3283E+04   2.1341E+06  0.000E+00  0.000E+00  0.000E+00  1.05772E+02  2.728E+00  5.000E+00  5.000E+03 -2.531E+01





     0  LAKE CELLS ARE DRY.

 PERIOD     1     TIME STEP     6     TIME STEP LENGTH  4.4927E+00
 PERIOD TIME  2.6623E+01     TOTAL SIMULATION TIME  2.6623E+01


                 HYDROLOGIC BUDGET SUMMARIES FOR SIMULATED LAKES
     (ALL FLUID FLUXES ARE VOLUMES ADDED TO THE LAKE DURING PRESENT TIME STEP)
     -------------------------------------------------------------------------
 LAKE    STAGE         VOLUME     VOL.CHANGE      PRECIP     EVAPORATION        RUNOFF
   1   116.6794     8.2996E+07   -1.5194E+06    3.2572E+05    2.8922E+05    0.0000E+00
   2   111.9919     5.3699E+07   -3.3924E+06    3.2572E+05    2.8922E+05    0.0000E+00

            GROUND WATER            SURFACE WATER        WATER
 LAKE    INFLOW     OUTFLOW      INFLOW     OUTFLOW       USE
   1  3.8333E+04  0.0000E+00  2.9280E+06  4.5222E+06  0.0000E+00
   2  3.6291E+05  0.0000E+00  4.7257E+06  8.5174E+06  0.0000E+00

      CONNECTED LAKE   TIME-STEP         STAGE-CHANGE          PERCENT
 LAKE    INFLUX      SURFACE AREA   TIME STEP  CUMULATIVE    DISCREPANCY
   1   0.0000E+00     6.2500E+06  -2.4309E-01 -1.3321E+01       0.000
   2   0.0000E+00     6.2500E+06  -5.4279E-01 -1.8008E+01       0.000
 --------------------------------------------------------------------------------



            CUMULATIVE HYDROLOGIC BUDGET SUMMARIES FOR SIMULATED LAKES
     (ALL FLUID FLUXES ARE SUMS OF VOLUMES ADDED TO THE LAKE SINCE INITIAL TIME)
     ---------------------------------------------------------------------------
 LAKE       PRECIP       EVAP       RUNOFF
   1     1.9302E+06  1.7139E+06  0.0000E+00
   2     1.9302E+06  1.7139E+06  0.0000E+00

            GROUND WATER            SURFACE WATER
 LAKE    INFLOW     OUTFLOW      INFLOW     OUTFLOW
   1  4.9941E+04  1.5644E+06  1.6898E+07  9.8852E+07
   2  8.9371E+05  1.4259E+06  9.8871E+07  2.1111E+08

         WATER    CONNECTED LAKE   CHANGE       PERCENT
 LAKE     USE         INFLUX       IN VOL.    DISCREPANCY
   1   0.0000E+00   0.0000E+00  -8.3253E+07      0.000
   2   0.0000E+00   0.0000E+00  -1.1255E+08      0.000
 --------------------------------------------------------------------------------

 
 SOLVING FOR HEAD 
     7 ITERATIONS FOR TIME STEP   7 IN STRESS PERIOD    1

 HEAD/DRAWDOWN PRINTOUT FLAG = 0     TOTAL BUDGET PRINTOUT FLAG = 0
 CELL-BY-CELL FLOW TERM FLAG = 1

 OUTPUT FLAGS FOR ALL LAYERS ARE THE SAME:
   HEAD    DRAWDOWN  HEAD  DRAWDOWN
 PRINTOUT  PRINTOUT  SAVE    SAVE
 ----------------------------------
     0         0       0       0



 STREAM LISTING     PERIOD      1   STEP        7

 LAYER ROW COL. STREAM  RCH.  FLOW INTO     FLOW TO   FLOW OUT OF   OVRLND.     DIRECT     STREAM       STREAM     STREAM     STREAM   STREAMBED  STREAMBED
                SEG.NO.  NO.  STRM. RCH.    AQUIFER    STRM. RCH.    RUNOFF     PRECIP       ET          HEAD       DEPTH      WIDTH   CONDCTNC.   GRADIENT

   1    2    5     1     1    6.9120E+05 -1.6332E+04   7.0753E+05  0.000E+00  0.000E+00  0.000E+00  1.25294E+02  1.345E+00  5.000E+00  5.000E+03 -6.533E+00
   1    3    5     1     2    7.0753E+05  9.2478E+03   6.9828E+05  0.000E+00  0.000E+00  0.000E+00  1.24194E+02  1.350E+00  5.000E+00  5.000E+03  3.699E+00
   1    4    5     1     3    6.9828E+05  9.1946E+03   6.8909E+05  0.000E+00  0.000E+00  0.000E+00  1.23080E+02  1.339E+00  5.000E+00  5.000E+03  3.678E+00
   1    4    6     1     4    6.8909E+05  9.1413E+03   6.7995E+05  0.000E+00  0.000E+00  0.000E+00  1.21966E+02  1.328E+00  5.000E+00  5.000E+03  3.657E+00
   1    4    7     1     5    6.7995E+05  4.5507E+03   6.7540E+05  0.000E+00  0.000E+00  0.000E+00  1.21131E+02  1.320E+00  5.000E+00  2.500E+03  3.641E+00
   1    4    8     1     6    6.7540E+05  6.8011E+03   6.6860E+05  0.000E+00  0.000E+00  0.000E+00  1.20434E+02  1.314E+00  5.000E+00  3.750E+03  3.627E+00
   1    5    8     1     7    6.6860E+05  6.3146E+03   6.6228E+05  0.000E+00  0.000E+00  0.000E+00  1.19461E+02  1.306E+00  5.000E+00  5.000E+03  2.526E+00
   1    6    8     1     8    6.6228E+05  1.7190E+03   6.6056E+05  0.000E+00  0.000E+00  0.000E+00  1.18353E+02  1.301E+00  5.000E+00  5.000E+03  6.876E-01
   1   12    9     2     1    8.8022E+05 -6.0689E+03   8.8629E+05  0.000E+00  0.000E+00  0.000E+00  1.16131E+02  1.692E+00  5.000E+00  5.000E+03 -2.428E+00
   1   13    9     2     2    8.8629E+05 -7.3069E+03   8.9360E+05  0.000E+00  0.000E+00  0.000E+00  1.15318E+02  1.699E+00  5.000E+00  5.000E+03 -2.923E+00
   1   14   10     2     3    8.9360E+05 -4.3578E+03   8.9796E+05  0.000E+00  0.000E+00  0.000E+00  1.14685E+02  1.706E+00  5.000E+00  2.795E+03 -3.118E+00
   1   14   10     2     4    8.9796E+05 -5.6241E+03   9.0358E+05  0.000E+00  0.000E+00  0.000E+00  1.14232E+02  1.712E+00  5.000E+00  2.795E+03 -4.024E+00
   1   15   10     2     5    9.0358E+05 -1.1428E+04   9.1501E+05  0.000E+00  0.000E+00  0.000E+00  1.13602E+02  1.721E+00  5.000E+00  5.000E+03 -4.571E+00
   1   16   10     2     6    9.1501E+05 -1.2967E+04   9.2798E+05  0.000E+00  0.000E+00  0.000E+00  1.12795E+02  1.735E+00  5.000E+00  5.000E+03 -5.187E+00
   1   22   10     3     1    1.4956E+06 -1.8600E+04   1.5142E+06  0.000E+00  0.000E+00  0.000E+00  1.11187E+02  2.232E+00  5.000E+00  5.000E+03 -7.440E+00
   1   23   10     3     2    1.5142E+06 -1.6882E+04   1.5310E+06  0.000E+00  0.000E+00  0.000E+00  1.10376E+02  2.248E+00  5.000E+00  3.750E+03 -9.004E+00
   1   23   11     3     3    1.5310E+06 -1.2763E+04   1.5438E+06  0.000E+00  0.000E+00  0.000E+00  1.09798E+02  2.261E+00  5.000E+00  2.500E+03 -1.021E+01
   1   23   12     3     4    1.5438E+06 -2.7728E+04   1.5715E+06  0.000E+00  0.000E+00  0.000E+00  1.09106E+02  2.278E+00  5.000E+00  5.000E+03 -1.109E+01
   1   23   13     3     5    1.5715E+06 -3.0270E+04   1.6018E+06  0.000E+00  0.000E+00  0.000E+00  1.08186E+02  2.304E+00  5.000E+00  5.000E+03 -1.211E+01
   1   23   14     3     6    1.6018E+06 -3.3019E+04   1.6348E+06  0.000E+00  0.000E+00  0.000E+00  1.07267E+02  2.331E+00  5.000E+00  5.000E+03 -1.321E+01
   1   23   15     3     7    1.6348E+06 -3.8102E+04   1.6729E+06  0.000E+00  0.000E+00  0.000E+00  1.06352E+02  2.362E+00  5.000E+00  5.000E+03 -1.524E+01
   1   23   16     3     8    1.6729E+06 -6.5888E+04   1.7388E+06  0.000E+00  0.000E+00  0.000E+00  1.05450E+02  2.406E+00  5.000E+00  5.000E+03 -2.636E+01





     0  LAKE CELLS ARE DRY.

 PERIOD     1     TIME STEP     7     TIME STEP LENGTH  4.5152E+00
 PERIOD TIME  3.1139E+01     TOTAL SIMULATION TIME  3.1139E+01


                 HYDROLOGIC BUDGET SUMMARIES FOR SIMULATED LAKES
     (ALL FLUID FLUXES ARE VOLUMES ADDED TO THE LAKE DURING PRESENT TIME STEP)
     -------------------------------------------------------------------------
 LAKE    STAGE         VOLUME     VOL.CHANGE      PRECIP     EVAPORATION        RUNOFF
   1   116.5380     8.2111E+07   -8.8410E+05    3.2735E+05    2.9067E+05    0.0000E+00
   2   111.6519     5.1573E+07   -2.1252E+06    3.2735E+05    2.9067E+05    0.0000E+00

            GROUND WATER            SURFACE WATER        WATER
 LAKE    INFLOW     OUTFLOW      INFLOW     OUTFLOW       USE
   1  7.1018E+04  0.0000E+00  2.9826E+06  3.9744E+06  0.0000E+00
   2  4.0085E+05  0.0000E+00  4.1900E+06  6.7527E+06  0.0000E+00

      CONNECTED LAKE   TIME-STEP         STAGE-CHANGE          PERCENT
 LAKE    INFLUX      SURFACE AREA   TIME STEP  CUMULATIVE    DISCREPANCY
   1   0.0000E+00     6.2500E+06  -1.4145E-01 -1.3462E+01       0.000
   2   0.0000E+00     6.2500E+06  -3.4004E-01 -1.8348E+01       0.000
 --------------------------------------------------------------------------------



            CUMULATIVE HYDROLOGIC BUDGET SUMMARIES FOR SIMULATED LAKES
     (ALL FLUID FLUXES ARE SUMS OF VOLUMES ADDED TO THE LAKE SINCE INITIAL TIME)
     ---------------------------------------------------------------------------
 LAKE       PRECIP       EVAP       RUNOFF
   1     2.2575E+06  2.0045E+06  0.0000E+00
   2     2.2575E+06  2.0045E+06  0.0000E+00

            GROUND WATER            SURFACE WATER
 LAKE    INFLOW     OUTFLOW      INFLOW     OUTFLOW
   1  1.2096E+05  1.5644E+06  1.9880E+07  1.0283E+08
   2  1.2946E+06  1.4259E+06  1.0306E+08  2.1786E+08

         WATER    CONNECTED LAKE   CHANGE       PERCENT
 LAKE     USE         INFLUX       IN VOL.    DISCREPANCY
   1   0.0000E+00   0.0000E+00  -8.4137E+07      0.000
   2   0.0000E+00   0.0000E+00  -1.1468E+08      0.000
 --------------------------------------------------------------------------------

 
 SOLVING FOR HEAD 
     7 ITERATIONS FOR TIME STEP   8 IN STRESS PERIOD    1

 HEAD/DRAWDOWN PRINTOUT FLAG = 0     TOTAL BUDGET PRINTOUT FLAG = 0
 CELL-BY-CELL FLOW TERM FLAG = 1

 OUTPUT FLAGS FOR ALL LAYERS ARE THE SAME:
   HEAD    DRAWDOWN  HEAD  DRAWDOWN
 PRINTOUT  PRINTOUT  SAVE    SAVE
 ----------------------------------
     0         0       0       0



 STREAM LISTING     PERIOD      1   STEP        8

 LAYER ROW COL. STREAM  RCH.  FLOW INTO     FLOW TO   FLOW OUT OF   OVRLND.     DIRECT     STREAM       STREAM     STREAM     STREAM   STREAMBED  STREAMBED
                SEG.NO.  NO.  STRM. RCH.    AQUIFER    STRM. RCH.    RUNOFF     PRECIP       ET          HEAD       DEPTH      WIDTH   CONDCTNC.   GRADIENT

   1    2    5     1     1    6.9120E+05 -2.2170E+04   7.1337E+05  0.000E+00  0.000E+00  0.000E+00  1.25297E+02  1.349E+00  5.000E+00  5.000E+03 -8.868E+00
   1    3    5     1     2    7.1337E+05  9.2813E+03   7.0409E+05  0.000E+00  0.000E+00  0.000E+00  1.24201E+02  1.356E+00  5.000E+00  5.000E+03  3.713E+00
   1    4    5     1     3    7.0409E+05  9.2280E+03   6.9486E+05  0.000E+00  0.000E+00  0.000E+00  1.23087E+02  1.346E+00  5.000E+00  5.000E+03  3.691E+00
   1    4    6     1     4    6.9486E+05  9.1748E+03   6.8569E+05  0.000E+00  0.000E+00  0.000E+00  1.21973E+02  1.335E+00  5.000E+00  5.000E+03  3.670E+00
   1    4    7     1     5    6.8569E+05  4.5674E+03   6.8112E+05  0.000E+00  0.000E+00  0.000E+00  1.21137E+02  1.327E+00  5.000E+00  2.500E+03  3.654E+00
   1    4    8     1     6    6.8112E+05  6.7647E+03   6.7435E+05  0.000E+00  0.000E+00  0.000E+00  1.20441E+02  1.320E+00  5.000E+00  3.750E+03  3.608E+00
   1    5    8     1     7    6.7435E+05  4.9755E+03   6.6938E+05  0.000E+00  0.000E+00  0.000E+00  1.19469E+02  1.313E+00  5.000E+00  5.000E+03  1.990E+00
   1    6    8     1     8    6.6938E+05  1.0177E+03   6.6836E+05  0.000E+00  0.000E+00  0.000E+00  1.18362E+02  1.310E+00  5.000E+00  5.000E+03  4.071E-01
   1   12    9     2     1    8.1035E+05 -6.4805E+03   8.1683E+05  0.000E+00  0.000E+00  0.000E+00  1.16050E+02  1.610E+00  5.000E+00  5.000E+03 -2.592E+00
   1   13    9     2     2    8.1683E+05 -7.9299E+03   8.2476E+05  0.000E+00  0.000E+00  0.000E+00  1.15238E+02  1.619E+00  5.000E+00  5.000E+03 -3.172E+00
   1   14   10     2     3    8.2476E+05 -4.6115E+03   8.2937E+05  0.000E+00  0.000E+00  0.000E+00  1.14606E+02  1.626E+00  5.000E+00  2.795E+03 -3.300E+00
   1   14   10     2     4    8.2937E+05 -5.8764E+03   8.3524E+05  0.000E+00  0.000E+00  0.000E+00  1.14153E+02  1.632E+00  5.000E+00  2.795E+03 -4.205E+00
   1   15   10     2     5    8.3524E+05 -1.1757E+04   8.4700E+05  0.000E+00  0.000E+00  0.000E+00  1.13524E+02  1.643E+00  5.000E+00  5.000E+03 -4.703E+00
   1   16   10     2     6    8.4700E+05 -1.2667E+04   8.5967E+05  0.000E+00  0.000E+00  0.000E+00  1.12717E+02  1.657E+00  5.000E+00  5.000E+03 -5.067E+00
   1   22   10     3     1    1.2604E+06 -1.8301E+04   1.2787E+06  0.000E+00  0.000E+00  0.000E+00  1.10971E+02  2.015E+00  5.000E+00  5.000E+03 -7.321E+00
   1   23   10     3     2    1.2787E+06 -1.6998E+04   1.2957E+06  0.000E+00  0.000E+00  0.000E+00  1.10160E+02  2.032E+00  5.000E+00  3.750E+03 -9.066E+00
   1   23   11     3     3    1.2957E+06 -1.2772E+04   1.3084E+06  0.000E+00  0.000E+00  0.000E+00  1.09583E+02  2.046E+00  5.000E+00  2.500E+03 -1.022E+01
   1   23   12     3     4    1.3084E+06 -2.7764E+04   1.3362E+06  0.000E+00  0.000E+00  0.000E+00  1.08893E+02  2.065E+00  5.000E+00  5.000E+03 -1.111E+01
   1   23   13     3     5    1.3362E+06 -3.0170E+04   1.3664E+06  0.000E+00  0.000E+00  0.000E+00  1.07974E+02  2.092E+00  5.000E+00  5.000E+03 -1.207E+01
   1   23   14     3     6    1.3664E+06 -3.2818E+04   1.3992E+06  0.000E+00  0.000E+00  0.000E+00  1.07057E+02  2.121E+00  5.000E+00  5.000E+03 -1.313E+01
   1   23   15     3     7    1.3992E+06 -3.8229E+04   1.4374E+06  0.000E+00  0.000E+00  0.000E+00  1.06144E+02  2.154E+00  5.000E+00  5.000E+03 -1.529E+01
   1   23   16     3     8    1.4374E+06 -6.7860E+04   1.5053E+06  0.000E+00  0.000E+00  0.000E+00  1.05246E+02  2.202E+00  5.000E+00  5.000E+03 -2.714E+01





     0  LAKE CELLS ARE DRY.

 PERIOD     1     TIME STEP     8     TIME STEP LENGTH  4.5378E+00
 PERIOD TIME  3.5676E+01     TOTAL SIMULATION TIME  3.5676E+01


                 HYDROLOGIC BUDGET SUMMARIES FOR SIMULATED LAKES
     (ALL FLUID FLUXES ARE VOLUMES ADDED TO THE LAKE DURING PRESENT TIME STEP)
     -------------------------------------------------------------------------
 LAKE    STAGE         VOLUME     VOL.CHANGE      PRECIP     EVAPORATION        RUNOFF
   1   116.4563     8.1601E+07   -5.1060E+05    3.2899E+05    2.9212E+05    0.0000E+00
   2   111.4350     5.0218E+07   -1.3553E+06    3.2899E+05    2.9212E+05    0.0000E+00

            GROUND WATER            SURFACE WATER        WATER
 LAKE    INFLOW     OUTFLOW      INFLOW     OUTFLOW       USE
   1  9.6833E+04  0.0000E+00  3.0329E+06  3.6772E+06  0.0000E+00
   2  4.2612E+05  0.0000E+00  3.9010E+06  5.7193E+06  0.0000E+00

      CONNECTED LAKE   TIME-STEP         STAGE-CHANGE          PERCENT
 LAKE    INFLUX      SURFACE AREA   TIME STEP  CUMULATIVE    DISCREPANCY
   1   0.0000E+00     6.2500E+06  -8.1693E-02 -1.3544E+01       0.000
   2   0.0000E+00     6.2500E+06  -2.1686E-01 -1.8565E+01       0.000
 --------------------------------------------------------------------------------



            CUMULATIVE HYDROLOGIC BUDGET SUMMARIES FOR SIMULATED LAKES
     (ALL FLUID FLUXES ARE SUMS OF VOLUMES ADDED TO THE LAKE SINCE INITIAL TIME)
     ---------------------------------------------------------------------------
 LAKE       PRECIP       EVAP       RUNOFF
   1     2.5865E+06  2.2967E+06  0.0000E+00
   2     2.5865E+06  2.2967E+06  0.0000E+00

            GROUND WATER            SURFACE WATER
 LAKE    INFLOW     OUTFLOW      INFLOW     OUTFLOW
   1  2.1779E+05  1.5644E+06  2.2913E+07  1.0650E+08
   2  1.7207E+06  1.4259E+06  1.0696E+08  2.2358E+08

         WATER    CONNECTED LAKE   CHANGE       PERCENT
 LAKE     USE         INFLUX       IN VOL.    DISCREPANCY
   1   0.0000E+00   0.0000E+00  -8.4648E+07      0.000
   2   0.0000E+00   0.0000E+00  -1.1603E+08      0.000
 --------------------------------------------------------------------------------

 
 SOLVING FOR HEAD 
     6 ITERATIONS FOR TIME STEP   9 IN STRESS PERIOD    1

 HEAD/DRAWDOWN PRINTOUT FLAG = 0     TOTAL BUDGET PRINTOUT FLAG = 0
 CELL-BY-CELL FLOW TERM FLAG = 1

 OUTPUT FLAGS FOR ALL LAYERS ARE THE SAME:
   HEAD    DRAWDOWN  HEAD  DRAWDOWN
 PRINTOUT  PRINTOUT  SAVE    SAVE
 ----------------------------------
     0         0       0       0



 STREAM LISTING     PERIOD      1   STEP        9

 LAYER ROW COL. STREAM  RCH.  FLOW INTO     FLOW TO   FLOW OUT OF   OVRLND.     DIRECT     STREAM       STREAM     STREAM     STREAM   STREAMBED  STREAMBED
                SEG.NO.  NO.  STRM. RCH.    AQUIFER    STRM. RCH.    RUNOFF     PRECIP       ET          HEAD       DEPTH      WIDTH   CONDCTNC.   GRADIENT

   1    2    5     1     1    6.9120E+05 -2.7321E+04   7.1852E+05  0.000E+00  0.000E+00  0.000E+00  1.25300E+02  1.352E+00  5.000E+00  5.000E+03 -1.093E+01
   1    3    5     1     2    7.1852E+05  9.3108E+03   7.0921E+05  0.000E+00  0.000E+00  0.000E+00  1.24207E+02  1.362E+00  5.000E+00  5.000E+03  3.724E+00
   1    4    5     1     3    7.0921E+05  9.2575E+03   6.9995E+05  0.000E+00  0.000E+00  0.000E+00  1.23093E+02  1.351E+00  5.000E+00  5.000E+03  3.703E+00
   1    4    6     1     4    6.9995E+05  9.2042E+03   6.9075E+05  0.000E+00  0.000E+00  0.000E+00  1.21979E+02  1.341E+00  5.000E+00  5.000E+03  3.682E+00
   1    4    7     1     5    6.9075E+05  4.5821E+03   6.8617E+05  0.000E+00  0.000E+00  0.000E+00  1.21143E+02  1.333E+00  5.000E+00  2.500E+03  3.666E+00
   1    4    8     1     6    6.8617E+05  5.3540E+03   6.8081E+05  0.000E+00  0.000E+00  0.000E+00  1.20448E+02  1.327E+00  5.000E+00  3.750E+03  2.855E+00
   1    5    8     1     7    6.8081E+05  3.7906E+03   6.7702E+05  0.000E+00  0.000E+00  0.000E+00  1.19477E+02  1.322E+00  5.000E+00  5.000E+03  1.516E+00
   1    6    8     1     8    6.7702E+05  3.9093E+02   6.7663E+05  0.000E+00  0.000E+00  0.000E+00  1.18371E+02  1.319E+00  5.000E+00  5.000E+03  1.564E-01
   1   12    9     2     1    7.7271E+05 -6.7819E+03   7.7949E+05  0.000E+00  0.000E+00  0.000E+00  1.16005E+02  1.565E+00  5.000E+00  5.000E+03 -2.713E+00
   1   13    9     2     2    7.7949E+05 -8.4400E+03   7.8793E+05  0.000E+00  0.000E+00  0.000E+00  1.15194E+02  1.574E+00  5.000E+00  5.000E+03 -3.376E+00
   1   14   10     2     3    7.8793E+05 -4.8208E+03   7.9275E+05  0.000E+00  0.000E+00  0.000E+00  1.14562E+02  1.582E+00  5.000E+00  2.795E+03 -3.450E+00
   1   14   10     2     4    7.9275E+05 -6.0846E+03   7.9884E+05  0.000E+00  0.000E+00  0.000E+00  1.14110E+02  1.589E+00  5.000E+00  2.795E+03 -4.354E+00
   1   15   10     2     5    7.9884E+05 -1.2006E+04   8.1084E+05  0.000E+00  0.000E+00  0.000E+00  1.13481E+02  1.600E+00  5.000E+00  5.000E+03 -4.802E+00
   1   16   10     2     6    8.1084E+05 -1.2358E+04   8.2320E+05  0.000E+00  0.000E+00  0.000E+00  1.12675E+02  1.614E+00  5.000E+00  5.000E+03 -4.943E+00
   1   22   10     3     1    1.1187E+06 -1.7876E+04   1.1365E+06  0.000E+00  0.000E+00  0.000E+00  1.10833E+02  1.877E+00  5.000E+00  5.000E+03 -7.150E+00
   1   23   10     3     2    1.1365E+06 -1.6957E+04   1.1535E+06  0.000E+00  0.000E+00  0.000E+00  1.10022E+02  1.894E+00  5.000E+00  3.750E+03 -9.044E+00
   1   23   11     3     3    1.1535E+06 -1.2652E+04   1.1662E+06  0.000E+00  0.000E+00  0.000E+00  1.09446E+02  1.909E+00  5.000E+00  2.500E+03 -1.012E+01
   1   23   12     3     4    1.1662E+06 -2.7546E+04   1.1937E+06  0.000E+00  0.000E+00  0.000E+00  1.08756E+02  1.929E+00  5.000E+00  5.000E+03 -1.102E+01
   1   23   13     3     5    1.1937E+06 -2.9848E+04   1.2235E+06  0.000E+00  0.000E+00  0.000E+00  1.07839E+02  1.957E+00  5.000E+00  5.000E+03 -1.194E+01
   1   23   14     3     6    1.2235E+06 -3.2428E+04   1.2560E+06  0.000E+00  0.000E+00  0.000E+00  1.06923E+02  1.987E+00  5.000E+00  5.000E+03 -1.297E+01
   1   23   15     3     7    1.2560E+06 -3.8193E+04   1.2942E+06  0.000E+00  0.000E+00  0.000E+00  1.06011E+02  2.021E+00  5.000E+00  5.000E+03 -1.528E+01
   1   23   16     3     8    1.2942E+06 -6.9445E+04   1.3636E+06  0.000E+00  0.000E+00  0.000E+00  1.05116E+02  2.071E+00  5.000E+00  5.000E+03 -2.778E+01





     0  LAKE CELLS ARE DRY.

 PERIOD     1     TIME STEP     9     TIME STEP LENGTH  4.5605E+00
 PERIOD TIME  4.0237E+01     TOTAL SIMULATION TIME  4.0237E+01


                 HYDROLOGIC BUDGET SUMMARIES FOR SIMULATED LAKES
     (ALL FLUID FLUXES ARE VOLUMES ADDED TO THE LAKE DURING PRESENT TIME STEP)
     -------------------------------------------------------------------------
 LAKE    STAGE         VOLUME     VOL.CHANGE      PRECIP     EVAPORATION        RUNOFF
   1   116.4111     8.1318E+07   -2.8266E+05    3.3063E+05    2.9358E+05    0.0000E+00
   2   111.2964     4.9351E+07   -8.6657E+05    3.3063E+05    2.9358E+05    0.0000E+00

            GROUND WATER            SURFACE WATER        WATER
 LAKE    INFLOW     OUTFLOW      INFLOW     OUTFLOW       USE
   1  1.1846E+05  0.0000E+00  3.0857E+06  3.5239E+06  0.0000E+00
   2  4.4383E+05  0.0000E+00  3.7542E+06  5.1016E+06  0.0000E+00

      CONNECTED LAKE   TIME-STEP         STAGE-CHANGE          PERCENT
 LAKE    INFLUX      SURFACE AREA   TIME STEP  CUMULATIVE    DISCREPANCY
   1   0.0000E+00     6.2500E+06  -4.5224E-02 -1.3589E+01       0.000
   2   0.0000E+00     6.2500E+06  -1.3865E-01 -1.8704E+01       0.000
 --------------------------------------------------------------------------------



            CUMULATIVE HYDROLOGIC BUDGET SUMMARIES FOR SIMULATED LAKES
     (ALL FLUID FLUXES ARE SUMS OF VOLUMES ADDED TO THE LAKE SINCE INITIAL TIME)
     ---------------------------------------------------------------------------
 LAKE       PRECIP       EVAP       RUNOFF
   1     2.9172E+06  2.5902E+06  0.0000E+00
   2     2.9172E+06  2.5902E+06  0.0000E+00

            GROUND WATER            SURFACE WATER
 LAKE    INFLOW     OUTFLOW      INFLOW     OUTFLOW
   1  3.3625E+05  1.5644E+06  2.5999E+07  1.1003E+08
   2  2.1645E+06  1.4259E+06  1.1072E+08  2.2868E+08

         WATER    CONNECTED LAKE   CHANGE       PERCENT
 LAKE     USE         INFLUX       IN VOL.    DISCREPANCY
   1   0.0000E+00   0.0000E+00  -8.4930E+07      0.000
   2   0.0000E+00   0.0000E+00  -1.1690E+08      0.000
 --------------------------------------------------------------------------------

 
 SOLVING FOR HEAD 
     6 ITERATIONS FOR TIME STEP  10 IN STRESS PERIOD    1

 HEAD/DRAWDOWN PRINTOUT FLAG = 1     TOTAL BUDGET PRINTOUT FLAG = 1
 CELL-BY-CELL FLOW TERM FLAG = 1

 OUTPUT FLAGS FOR EACH LAYER:
          HEAD    DRAWDOWN  HEAD  DRAWDOWN
 LAYER  PRINTOUT  PRINTOUT  SAVE    SAVE
 -----------------------------------------
    1       0         0       0       0
    2       0         0       0       0
    3       0         0       0       0
    4       0         0       0       0
    5       1         0       0       0



 STREAM LISTING     PERIOD      1   STEP       10

 LAYER ROW COL. STREAM  RCH.  FLOW INTO     FLOW TO   FLOW OUT OF   OVRLND.     DIRECT     STREAM       STREAM     STREAM     STREAM   STREAMBED  STREAMBED
                SEG.NO.  NO.  STRM. RCH.    AQUIFER    STRM. RCH.    RUNOFF     PRECIP       ET          HEAD       DEPTH      WIDTH   CONDCTNC.   GRADIENT

   1    2    5     1     1    6.9120E+05 -3.1893E+04   7.2309E+05  0.000E+00  0.000E+00  0.000E+00  1.25303E+02  1.354E+00  5.000E+00  5.000E+03 -1.276E+01
   1    3    5     1     2    7.2309E+05  9.3368E+03   7.1376E+05  0.000E+00  0.000E+00  0.000E+00  1.24212E+02  1.367E+00  5.000E+00  5.000E+03  3.735E+00
   1    4    5     1     3    7.1376E+05  9.2835E+03   7.0447E+05  0.000E+00  0.000E+00  0.000E+00  1.23098E+02  1.357E+00  5.000E+00  5.000E+03  3.713E+00
   1    4    6     1     4    7.0447E+05  9.2302E+03   6.9524E+05  0.000E+00  0.000E+00  0.000E+00  1.21984E+02  1.346E+00  5.000E+00  5.000E+03  3.692E+00
   1    4    7     1     5    6.9524E+05  4.2102E+03   6.9103E+05  0.000E+00  0.000E+00  0.000E+00  1.21149E+02  1.338E+00  5.000E+00  2.500E+03  3.368E+00
   1    4    8     1     6    6.9103E+05  4.0685E+03   6.8696E+05  0.000E+00  0.000E+00  0.000E+00  1.20454E+02  1.333E+00  5.000E+00  3.750E+03  2.170E+00
   1    5    8     1     7    6.8696E+05  2.7144E+03   6.8425E+05  0.000E+00  0.000E+00  0.000E+00  1.19485E+02  1.330E+00  5.000E+00  5.000E+03  1.086E+00
   1    6    8     1     8    6.8425E+05 -1.8565E+02   6.8443E+05  0.000E+00  0.000E+00  0.000E+00  1.18380E+02  1.328E+00  5.000E+00  5.000E+03 -7.426E-02
   1   12    9     2     1    7.5387E+05 -7.0332E+03   7.6090E+05  0.000E+00  0.000E+00  0.000E+00  1.15982E+02  1.542E+00  5.000E+00  5.000E+03 -2.813E+00
   1   13    9     2     2    7.6090E+05 -8.8940E+03   7.6979E+05  0.000E+00  0.000E+00  0.000E+00  1.15171E+02  1.552E+00  5.000E+00  5.000E+03 -3.558E+00
   1   14   10     2     3    7.6979E+05 -5.0125E+03   7.7481E+05  0.000E+00  0.000E+00  0.000E+00  1.14540E+02  1.561E+00  5.000E+00  2.795E+03 -3.587E+00
   1   14   10     2     4    7.7481E+05 -6.2756E+03   7.8108E+05  0.000E+00  0.000E+00  0.000E+00  1.14088E+02  1.567E+00  5.000E+00  2.795E+03 -4.491E+00
   1   15   10     2     5    7.8108E+05 -1.2226E+04   7.9331E+05  0.000E+00  0.000E+00  0.000E+00  1.13460E+02  1.579E+00  5.000E+00  5.000E+03 -4.890E+00
   1   16   10     2     6    7.9331E+05 -1.2082E+04   8.0539E+05  0.000E+00  0.000E+00  0.000E+00  1.12654E+02  1.593E+00  5.000E+00  5.000E+03 -4.833E+00
   1   22   10     3     1    1.0326E+06 -1.7422E+04   1.0500E+06  0.000E+00  0.000E+00  0.000E+00  1.10745E+02  1.789E+00  5.000E+00  5.000E+03 -6.969E+00
   1   23   10     3     2    1.0500E+06 -1.6852E+04   1.0669E+06  0.000E+00  0.000E+00  0.000E+00  1.09935E+02  1.807E+00  5.000E+00  3.750E+03 -8.988E+00
   1   23   11     3     3    1.0669E+06 -1.2477E+04   1.0794E+06  0.000E+00  0.000E+00  0.000E+00  1.09359E+02  1.822E+00  5.000E+00  2.500E+03 -9.981E+00
   1   23   12     3     4    1.0794E+06 -2.7216E+04   1.1066E+06  0.000E+00  0.000E+00  0.000E+00  1.08670E+02  1.842E+00  5.000E+00  5.000E+03 -1.089E+01
   1   23   13     3     5    1.1066E+06 -2.9441E+04   1.1360E+06  0.000E+00  0.000E+00  0.000E+00  1.07752E+02  1.871E+00  5.000E+00  5.000E+03 -1.178E+01
   1   23   14     3     6    1.1360E+06 -3.1980E+04   1.1680E+06  0.000E+00  0.000E+00  0.000E+00  1.06837E+02  1.901E+00  5.000E+00  5.000E+03 -1.279E+01
   1   23   15     3     7    1.1680E+06 -3.8117E+04   1.2061E+06  0.000E+00  0.000E+00  0.000E+00  1.05926E+02  1.936E+00  5.000E+00  5.000E+03 -1.525E+01
   1   23   16     3     8    1.2061E+06 -7.0786E+04   1.2769E+06  0.000E+00  0.000E+00  0.000E+00  1.05033E+02  1.988E+00  5.000E+00  5.000E+03 -2.831E+01





     0  LAKE CELLS ARE DRY.

 PERIOD     1     TIME STEP    10     TIME STEP LENGTH  4.5833E+00
 PERIOD TIME  4.4820E+01     TOTAL SIMULATION TIME  4.4820E+01


                 HYDROLOGIC BUDGET SUMMARIES FOR SIMULATED LAKES
     (ALL FLUID FLUXES ARE VOLUMES ADDED TO THE LAKE DURING PRESENT TIME STEP)
     -------------------------------------------------------------------------
 LAKE    STAGE         VOLUME     VOL.CHANGE      PRECIP     EVAPORATION        RUNOFF
   1   116.3881     8.1175E+07   -1.4349E+05    3.3229E+05    2.9505E+05    0.0000E+00
   2   111.2088     4.8804E+07   -5.4726E+05    3.3229E+05    2.9505E+05    0.0000E+00

            GROUND WATER            SURFACE WATER        WATER
 LAKE    INFLOW     OUTFLOW      INFLOW     OUTFLOW       USE
   1  1.3749E+05  0.0000E+00  3.1369E+06  3.4552E+06  0.0000E+00
   2  4.5694E+05  0.0000E+00  3.6913E+06  4.7328E+06  0.0000E+00

      CONNECTED LAKE   TIME-STEP         STAGE-CHANGE          PERCENT
 LAKE    INFLUX      SURFACE AREA   TIME STEP  CUMULATIVE    DISCREPANCY
   1   0.0000E+00     6.2500E+06  -2.2958E-02 -1.3612E+01       0.000
   2   0.0000E+00     6.2500E+06  -8.7564E-02 -1.8791E+01       0.000
 --------------------------------------------------------------------------------



            CUMULATIVE HYDROLOGIC BUDGET SUMMARIES FOR SIMULATED LAKES
     (ALL FLUID FLUXES ARE SUMS OF VOLUMES ADDED TO THE LAKE SINCE INITIAL TIME)
     ---------------------------------------------------------------------------
 LAKE       PRECIP       EVAP       RUNOFF
   1     3.2495E+06  2.8853E+06  0.0000E+00
   2     3.2495E+06  2.8853E+06  0.0000E+00

            GROUND WATER            SURFACE WATER
 LAKE    INFLOW     OUTFLOW      INFLOW     OUTFLOW
   1  4.7374E+05  1.5644E+06  2.9136E+07  1.1348E+08
   2  2.6214E+06  1.4259E+06  1.1441E+08  2.3341E+08

         WATER    CONNECTED LAKE   CHANGE       PERCENT
 LAKE     USE         INFLUX       IN VOL.    DISCREPANCY
   1   0.0000E+00   0.0000E+00  -8.5074E+07      0.000
   2   0.0000E+00   0.0000E+00  -1.1744E+08      0.000
 --------------------------------------------------------------------------------

1
              HEAD IN LAYER   5 AT END OF TIME STEP  10 IN STRESS PERIOD    1
  ---------------------------------------------------------------------------

          1      2      3      4      5      6      7      8      9     10
 .........................................................................
   1   160.0  158.9  157.3  155.8  154.2  152.7  151.5  150.8  150.0  149.2
   2   160.0  146.3  136.7  134.0  131.7  132.2  131.8  131.4  131.0  130.7
   3   160.0  137.8  123.6  121.0  121.6  120.5  120.3  120.2  120.0  119.9
   4   160.0  136.0  121.1  118.5  119.4  119.4  119.5  119.4  118.5  118.1
   5   160.0  135.7  120.8  118.0  117.9  118.0  118.4  118.9  118.3  117.9
   6   160.0  135.7  120.7  118.0  117.7  117.9  118.2  118.4  118.2  118.0
   7   160.0  135.7  120.7  118.0  117.7  117.9  116.5  116.5  116.5  116.5
   8   160.0  135.7  120.7  118.0  117.7  117.9  116.5  116.4  116.4  116.4
   9   160.0  135.7  120.7  118.0  117.7  117.9  116.4  116.4  116.4  116.4
  10   160.0  135.7  120.7  118.0  117.7  117.9  116.4  116.4  116.4  116.4
  11   160.0  135.7  120.7  118.0  117.7  117.9  116.5  116.4  116.4  116.4
  12   160.0  135.7  120.7  118.0  117.7  117.8  117.9  117.9  117.4  117.9
  13   160.0  135.7  120.7  118.0  117.6  117.7  117.7  117.6  117.0  117.6
  14   160.0  135.7  120.7  118.0  117.6  117.6  117.6  117.6  117.3  116.3
  15   160.0  135.7  120.7  118.0  117.6  117.6  117.6  117.5  117.1  115.9
  16   160.0  135.7  120.7  118.0  117.6  117.6  116.9  116.7  116.3  115.1
  17   160.0  135.7  120.7  118.0  117.6  117.0  111.6  111.4  111.4  111.4
  18   160.0  135.7  120.7  118.0  117.6  116.9  111.4  111.3  111.3  111.3
  19   160.0  135.7  120.7  118.0  117.6  116.9  111.4  111.3  111.3  111.3
  20   160.0  135.7  120.7  118.0  117.6  116.9  111.4  111.3  111.3  111.3
  21   160.0  135.7  120.7  118.0  117.6  117.0  111.6  111.4  111.4  111.4
  22   160.0  135.7  120.7  118.0  117.6  117.6  116.9  116.7  116.1  114.2
  23   160.0  135.7  120.8  118.0  117.7  117.6  117.6  117.4  116.7  114.4
  24   160.0  136.0  121.1  118.3  117.9  117.9  117.9  117.8  117.7  117.6
  25   160.0  137.8  123.6  120.8  120.3  120.1  120.0  119.9  119.9  119.8
  26   160.0  146.3  136.7  134.0  133.0  132.3  131.7  131.4  131.0  130.7
  27   160.0  158.9  157.3  155.8  154.2  152.7  151.5  150.8  150.0  149.2
1
              HEAD IN LAYER   5 AT END OF TIME STEP  10 IN STRESS PERIOD    1
  ---------------------------------------------------------------------------

         11     12     13     14     15     16     17
 ....................................................
   1   148.5  147.3  145.8  144.2  142.7  141.1  140.0
   2   130.3  129.8  129.2  128.6  128.8  132.5  140.0
   3   119.8  119.7  119.6  119.6  120.8  127.7  140.0
   4   117.9  117.9  117.8  118.0  119.3  126.8  140.0
   5   117.8  117.7  117.6  117.8  119.1  126.7  140.0
   6   117.9  117.8  117.7  117.8  119.1  126.7  140.0
   7   116.5  117.9  117.7  117.8  119.1  126.7  140.0
   8   116.4  117.9  117.7  117.8  119.1  126.7  140.0
   9   116.4  117.9  117.7  117.8  119.1  126.7  140.0
  10   116.4  117.9  117.7  117.8  119.1  126.7  140.0
  11   116.5  117.9  117.7  117.8  119.1  126.7  140.0
  12   117.9  117.8  117.7  117.8  119.1  126.7  140.0
  13   117.7  117.7  117.6  117.8  119.1  126.7  140.0
  14   117.3  117.6  117.6  117.8  119.1  126.7  140.0
  15   117.1  117.6  117.6  117.8  119.1  126.7  140.0
  16   116.4  117.5  117.6  117.8  119.1  126.7  140.0
  17   111.6  116.9  117.6  117.8  119.1  126.6  140.0
  18   111.4  116.9  117.6  117.8  119.1  126.6  140.0
  19   111.4  116.9  117.6  117.8  119.1  126.6  140.0
  20   111.4  116.9  117.6  117.7  119.1  126.6  140.0
  21   111.6  116.9  117.5  117.7  119.0  126.5  140.0
  22   115.9  117.1  117.1  117.2  118.4  125.8  140.0
  23   114.4  114.1  113.6  113.2  113.6  119.2  140.0
  24   117.5  117.4  117.4  117.4  118.6  125.9  140.0
  25   119.7  119.6  119.5  119.6  120.7  127.6  140.0
  26   130.3  129.8  129.2  128.6  128.8  132.5  140.0
  27   148.5  147.3  145.8  144.2  142.7  141.1  140.0
1
  VOLUMETRIC BUDGET FOR ENTIRE MODEL AT END OF TIME STEP 10 IN STRESS PERIOD   1
  ------------------------------------------------------------------------------

     CUMULATIVE VOLUMES      L**3       RATES FOR THIS TIME STEP      L**3/T
     ------------------                 ------------------------

           IN:                                      IN:
           ---                                      ---
             STORAGE =     2442200.7500               STORAGE =       43090.4102
       CONSTANT HEAD =   206499696.0000         CONSTANT HEAD =     3781035.2500
                  ET =           0.0000                    ET =           0.0000
            RECHARGE =   123479160.0000              RECHARGE =     2755000.0000
     SPECIFIED FLOWS =           0.0000       SPECIFIED FLOWS =           0.0000
      STREAM LEAKAGE =     3143119.0000        STREAM LEAKAGE =       38843.6680
       LAKE  SEEPAGE =     2990331.7500         LAKE  SEEPAGE =           0.0000

            TOTAL IN =   338554496.0000              TOTAL IN =     6617969.5000

          OUT:                                     OUT:
          ----                                     ----
             STORAGE =   324696928.0000               STORAGE =     6130776.5000
       CONSTANT HEAD =           0.0000         CONSTANT HEAD =           0.0000
                  ET =      279275.7188                    ET =       29585.8828
            RECHARGE =           0.0000              RECHARGE =           0.0000
     SPECIFIED FLOWS =           0.0000       SPECIFIED FLOWS =           0.0000
      STREAM LEAKAGE =    10483211.0000        STREAM LEAKAGE =      327892.3125
       LAKE  SEEPAGE =     3095190.0000         LAKE  SEEPAGE =      129696.0625

           TOTAL OUT =   338554592.0000             TOTAL OUT =     6617951.0000

            IN - OUT =         -96.0000              IN - OUT =          18.5000

 PERCENT DISCREPANCY =           0.00     PERCENT DISCREPANCY =           0.00






          TIME SUMMARY AT END OF TIME STEP  10 IN STRESS PERIOD    1
                    SECONDS     MINUTES      HOURS       DAYS        YEARS
                    -----------------------------------------------------------
   TIME STEP LENGTH 3.95994E+05  6599.9      110.00      4.5833     1.25483E-02
 STRESS PERIOD TIME 3.87245E+06  64541.      1075.7      44.820     0.12271    
         TOTAL TIME 3.87245E+06  64541.      1075.7      44.820     0.12271    
1
 
 SOLVING FOR HEAD 
     6 ITERATIONS FOR TIME STEP  11 IN STRESS PERIOD    1

 HEAD/DRAWDOWN PRINTOUT FLAG = 0     TOTAL BUDGET PRINTOUT FLAG = 0
 CELL-BY-CELL FLOW TERM FLAG = 1

 OUTPUT FLAGS FOR ALL LAYERS ARE THE SAME:
   HEAD    DRAWDOWN  HEAD  DRAWDOWN
 PRINTOUT  PRINTOUT  SAVE    SAVE
 ----------------------------------
     0         0       0       0



 STREAM LISTING     PERIOD      1   STEP       11

 LAYER ROW COL. STREAM  RCH.  FLOW INTO     FLOW TO   FLOW OUT OF   OVRLND.     DIRECT     STREAM       STREAM     STREAM     STREAM   STREAMBED  STREAMBED
                SEG.NO.  NO.  STRM. RCH.    AQUIFER    STRM. RCH.    RUNOFF     PRECIP       ET          HEAD       DEPTH      WIDTH   CONDCTNC.   GRADIENT

   1    2    5     1     1    6.9120E+05 -3.5976E+04   7.2718E+05  0.000E+00  0.000E+00  0.000E+00  1.25305E+02  1.357E+00  5.000E+00  5.000E+03 -1.439E+01
   1    3    5     1     2    7.2718E+05  9.3600E+03   7.1782E+05  0.000E+00  0.000E+00  0.000E+00  1.24217E+02  1.372E+00  5.000E+00  5.000E+03  3.744E+00
   1    4    5     1     3    7.1782E+05  9.3067E+03   7.0851E+05  0.000E+00  0.000E+00  0.000E+00  1.23103E+02  1.361E+00  5.000E+00  5.000E+03  3.723E+00
   1    4    6     1     4    7.0851E+05  9.2534E+03   6.9926E+05  0.000E+00  0.000E+00  0.000E+00  1.21989E+02  1.351E+00  5.000E+00  5.000E+03  3.701E+00
   1    4    7     1     5    6.9926E+05  3.2356E+03   6.9602E+05  0.000E+00  0.000E+00  0.000E+00  1.21154E+02  1.343E+00  5.000E+00  2.500E+03  2.588E+00
   1    4    8     1     6    6.9602E+05  2.8791E+03   6.9314E+05  0.000E+00  0.000E+00  0.000E+00  1.20461E+02  1.340E+00  5.000E+00  3.750E+03  1.536E+00
   1    5    8     1     7    6.9314E+05  1.7220E+03   6.9142E+05  0.000E+00  0.000E+00  0.000E+00  1.19492E+02  1.337E+00  5.000E+00  5.000E+03  6.888E-01
   1    6    8     1     8    6.9142E+05 -7.2257E+02   6.9214E+05  0.000E+00  0.000E+00  0.000E+00  1.18388E+02  1.337E+00  5.000E+00  5.000E+03 -2.890E-01
   1   12    9     2     1    7.4639E+05 -7.2635E+03   7.5365E+05  0.000E+00  0.000E+00  0.000E+00  1.15973E+02  1.533E+00  5.000E+00  5.000E+03 -2.905E+00
   1   13    9     2     2    7.5365E+05 -9.3198E+03   7.6297E+05  0.000E+00  0.000E+00  0.000E+00  1.15163E+02  1.544E+00  5.000E+00  5.000E+03 -3.728E+00
   1   14   10     2     3    7.6297E+05 -5.1990E+03   7.6817E+05  0.000E+00  0.000E+00  0.000E+00  1.14532E+02  1.552E+00  5.000E+00  2.795E+03 -3.720E+00
   1   14   10     2     4    7.6817E+05 -6.4614E+03   7.7463E+05  0.000E+00  0.000E+00  0.000E+00  1.14080E+02  1.560E+00  5.000E+00  2.795E+03 -4.624E+00
   1   15   10     2     5    7.7463E+05 -1.2440E+04   7.8707E+05  0.000E+00  0.000E+00  0.000E+00  1.13452E+02  1.571E+00  5.000E+00  5.000E+03 -4.976E+00
   1   16   10     2     6    7.8707E+05 -1.1854E+04   7.9893E+05  0.000E+00  0.000E+00  0.000E+00  1.12646E+02  1.586E+00  5.000E+00  5.000E+03 -4.742E+00
   1   22   10     3     1    9.8128E+05 -1.6986E+04   9.9826E+05  0.000E+00  0.000E+00  0.000E+00  1.10691E+02  1.736E+00  5.000E+00  5.000E+03 -6.794E+00
   1   23   10     3     2    9.9826E+05 -1.6731E+04   1.0150E+06  0.000E+00  0.000E+00  0.000E+00  1.09881E+02  1.753E+00  5.000E+00  3.750E+03 -8.923E+00
   1   23   11     3     3    1.0150E+06 -1.2286E+04   1.0273E+06  0.000E+00  0.000E+00  0.000E+00  1.09305E+02  1.768E+00  5.000E+00  2.500E+03 -9.829E+00
   1   23   12     3     4    1.0273E+06 -2.6850E+04   1.0541E+06  0.000E+00  0.000E+00  0.000E+00  1.08616E+02  1.789E+00  5.000E+00  5.000E+03 -1.074E+01
   1   23   13     3     5    1.0541E+06 -2.9022E+04   1.0832E+06  0.000E+00  0.000E+00  0.000E+00  1.07699E+02  1.817E+00  5.000E+00  5.000E+03 -1.161E+01
   1   23   14     3     6    1.0832E+06 -3.1544E+04   1.1147E+06  0.000E+00  0.000E+00  0.000E+00  1.06784E+02  1.848E+00  5.000E+00  5.000E+03 -1.262E+01
   1   23   15     3     7    1.1147E+06 -3.8062E+04   1.1528E+06  0.000E+00  0.000E+00  0.000E+00  1.05873E+02  1.883E+00  5.000E+00  5.000E+03 -1.522E+01
   1   23   16     3     8    1.1528E+06 -7.1965E+04   1.2247E+06  0.000E+00  0.000E+00  0.000E+00  1.04982E+02  1.937E+00  5.000E+00  5.000E+03 -2.879E+01





     0  LAKE CELLS ARE DRY.

 PERIOD     1     TIME STEP    11     TIME STEP LENGTH  4.6062E+00
 PERIOD TIME  4.9426E+01     TOTAL SIMULATION TIME  4.9426E+01


                 HYDROLOGIC BUDGET SUMMARIES FOR SIMULATED LAKES
     (ALL FLUID FLUXES ARE VOLUMES ADDED TO THE LAKE DURING PRESENT TIME STEP)
     -------------------------------------------------------------------------
 LAKE    STAGE         VOLUME     VOL.CHANGE      PRECIP     EVAPORATION        RUNOFF
   1   116.3789     8.1117E+07   -5.7504E+04    3.3395E+05    2.9652E+05    0.0000E+00
   2   111.1552     4.8469E+07   -3.3520E+05    3.3395E+05    2.9652E+05    0.0000E+00

            GROUND WATER            SURFACE WATER        WATER
 LAKE    INFLOW     OUTFLOW      INFLOW     OUTFLOW       USE
   1  1.5495E+05  0.0000E+00  3.1881E+06  3.4380E+06  0.0000E+00
   2  4.6730E+05  0.0000E+00  3.6800E+06  4.5199E+06  0.0000E+00

      CONNECTED LAKE   TIME-STEP         STAGE-CHANGE          PERCENT
 LAKE    INFLUX      SURFACE AREA   TIME STEP  CUMULATIVE    DISCREPANCY
   1   0.0000E+00     6.2500E+06  -9.2005E-03 -1.3621E+01       0.000
   2   0.0000E+00     6.2500E+06  -5.3634E-02 -1.8845E+01       0.000
 --------------------------------------------------------------------------------



            CUMULATIVE HYDROLOGIC BUDGET SUMMARIES FOR SIMULATED LAKES
     (ALL FLUID FLUXES ARE SUMS OF VOLUMES ADDED TO THE LAKE SINCE INITIAL TIME)
     ---------------------------------------------------------------------------
 LAKE       PRECIP       EVAP       RUNOFF
   1     3.5834E+06  3.1818E+06  0.0000E+00
   2     3.5834E+06  3.1818E+06  0.0000E+00

            GROUND WATER            SURFACE WATER
 LAKE    INFLOW     OUTFLOW      INFLOW     OUTFLOW
   1  6.2870E+05  1.5644E+06  3.2324E+07  1.1692E+08
   2  3.0888E+06  1.4259E+06  1.1809E+08  2.3793E+08

         WATER    CONNECTED LAKE   CHANGE       PERCENT
 LAKE     USE         INFLUX       IN VOL.    DISCREPANCY
   1   0.0000E+00   0.0000E+00  -8.5131E+07      0.000
   2   0.0000E+00   0.0000E+00  -1.1778E+08      0.000
 --------------------------------------------------------------------------------

 
 SOLVING FOR HEAD 
     6 ITERATIONS FOR TIME STEP  12 IN STRESS PERIOD    1

 HEAD/DRAWDOWN PRINTOUT FLAG = 0     TOTAL BUDGET PRINTOUT FLAG = 0
 CELL-BY-CELL FLOW TERM FLAG = 1

 OUTPUT FLAGS FOR ALL LAYERS ARE THE SAME:
   HEAD    DRAWDOWN  HEAD  DRAWDOWN
 PRINTOUT  PRINTOUT  SAVE    SAVE
 ----------------------------------
     0         0       0       0



 STREAM LISTING     PERIOD      1   STEP       12

 LAYER ROW COL. STREAM  RCH.  FLOW INTO     FLOW TO   FLOW OUT OF   OVRLND.     DIRECT     STREAM       STREAM     STREAM     STREAM   STREAMBED  STREAMBED
                SEG.NO.  NO.  STRM. RCH.    AQUIFER    STRM. RCH.    RUNOFF     PRECIP       ET          HEAD       DEPTH      WIDTH   CONDCTNC.   GRADIENT

   1    2    5     1     1    6.9120E+05 -3.9635E+04   7.3084E+05  0.000E+00  0.000E+00  0.000E+00  1.25307E+02  1.359E+00  5.000E+00  5.000E+03 -1.585E+01
   1    3    5     1     2    7.3084E+05  6.2028E+03   7.2463E+05  0.000E+00  0.000E+00  0.000E+00  1.24223E+02  1.378E+00  5.000E+00  5.000E+03  2.481E+00
   1    4    5     1     3    7.2463E+05  9.3456E+03   7.1529E+05  0.000E+00  0.000E+00  0.000E+00  1.23110E+02  1.369E+00  5.000E+00  5.000E+03  3.738E+00
   1    4    6     1     4    7.1529E+05  8.2153E+03   7.0707E+05  0.000E+00  0.000E+00  0.000E+00  1.21997E+02  1.359E+00  5.000E+00  5.000E+03  3.286E+00
   1    4    7     1     5    7.0707E+05  2.3445E+03   7.0473E+05  0.000E+00  0.000E+00  0.000E+00  1.21163E+02  1.353E+00  5.000E+00  2.500E+03  1.876E+00
   1    4    8     1     6    7.0473E+05  1.7767E+03   7.0295E+05  0.000E+00  0.000E+00  0.000E+00  1.20471E+02  1.351E+00  5.000E+00  3.750E+03  9.476E-01
   1    5    8     1     7    7.0295E+05  8.1217E+02   7.0214E+05  0.000E+00  0.000E+00  0.000E+00  1.19504E+02  1.349E+00  5.000E+00  5.000E+03  3.249E-01
   1    6    8     1     8    7.0214E+05 -1.2109E+03   7.0335E+05  0.000E+00  0.000E+00  0.000E+00  1.18401E+02  1.349E+00  5.000E+00  5.000E+03 -4.844E-01
   1   12    9     2     1    7.4718E+05 -7.4803E+03   7.5466E+05  0.000E+00  0.000E+00  0.000E+00  1.15974E+02  1.535E+00  5.000E+00  5.000E+03 -2.992E+00
   1   13    9     2     2    7.5466E+05 -9.7251E+03   7.6439E+05  0.000E+00  0.000E+00  0.000E+00  1.15164E+02  1.545E+00  5.000E+00  5.000E+03 -3.890E+00
   1   14   10     2     3    7.6439E+05 -5.3822E+03   7.6977E+05  0.000E+00  0.000E+00  0.000E+00  1.14534E+02  1.554E+00  5.000E+00  2.795E+03 -3.851E+00
   1   14   10     2     4    7.6977E+05 -6.6440E+03   7.7641E+05  0.000E+00  0.000E+00  0.000E+00  1.14082E+02  1.562E+00  5.000E+00  2.795E+03 -4.754E+00
   1   15   10     2     5    7.7641E+05 -1.2652E+04   7.8907E+05  0.000E+00  0.000E+00  0.000E+00  1.13454E+02  1.573E+00  5.000E+00  5.000E+03 -5.061E+00
   1   16   10     2     6    7.8907E+05 -1.1671E+04   8.0074E+05  0.000E+00  0.000E+00  0.000E+00  1.12648E+02  1.588E+00  5.000E+00  5.000E+03 -4.668E+00
   1   22   10     3     1    9.5264E+05 -1.6588E+04   9.6922E+05  0.000E+00  0.000E+00  0.000E+00  1.10661E+02  1.705E+00  5.000E+00  5.000E+03 -6.635E+00
   1   23   10     3     2    9.6922E+05 -1.6621E+04   9.8584E+05  0.000E+00  0.000E+00  0.000E+00  1.09851E+02  1.723E+00  5.000E+00  3.750E+03 -8.865E+00
   1   23   11     3     3    9.8584E+05 -1.2104E+04   9.9795E+05  0.000E+00  0.000E+00  0.000E+00  1.09275E+02  1.738E+00  5.000E+00  2.500E+03 -9.683E+00
   1   23   12     3     4    9.9795E+05 -2.6494E+04   1.0244E+06  0.000E+00  0.000E+00  0.000E+00  1.08586E+02  1.758E+00  5.000E+00  5.000E+03 -1.060E+01
   1   23   13     3     5    1.0244E+06 -2.8632E+04   1.0531E+06  0.000E+00  0.000E+00  0.000E+00  1.07668E+02  1.787E+00  5.000E+00  5.000E+03 -1.145E+01
   1   23   14     3     6    1.0531E+06 -3.1157E+04   1.0842E+06  0.000E+00  0.000E+00  0.000E+00  1.06753E+02  1.817E+00  5.000E+00  5.000E+03 -1.246E+01
   1   23   15     3     7    1.0842E+06 -3.8062E+04   1.1223E+06  0.000E+00  0.000E+00  0.000E+00  1.05843E+02  1.852E+00  5.000E+00  5.000E+03 -1.522E+01
   1   23   16     3     8    1.1223E+06 -7.3025E+04   1.1953E+06  0.000E+00  0.000E+00  0.000E+00  1.04952E+02  1.908E+00  5.000E+00  5.000E+03 -2.921E+01





     0  LAKE CELLS ARE DRY.

 PERIOD     1     TIME STEP    12     TIME STEP LENGTH  4.6292E+00
 PERIOD TIME  5.4055E+01     TOTAL SIMULATION TIME  5.4055E+01


                 HYDROLOGIC BUDGET SUMMARIES FOR SIMULATED LAKES
     (ALL FLUID FLUXES ARE VOLUMES ADDED TO THE LAKE DURING PRESENT TIME STEP)
     -------------------------------------------------------------------------
 LAKE    STAGE         VOLUME     VOL.CHANGE      PRECIP     EVAPORATION        RUNOFF
   1   116.3799     8.1123E+07    6.1040E+03    3.3562E+05    2.9801E+05    0.0000E+00
   2   111.1249     4.8280E+07   -1.8945E+05    3.3562E+05    2.9801E+05    0.0000E+00

            GROUND WATER            SURFACE WATER        WATER
 LAKE    INFLOW     OUTFLOW      INFLOW     OUTFLOW       USE
   1  1.7141E+05  0.0000E+00  3.2560E+06  3.4589E+06  0.0000E+00
   2  4.7611E+05  0.0000E+00  3.7068E+06  4.4100E+06  0.0000E+00

      CONNECTED LAKE   TIME-STEP         STAGE-CHANGE          PERCENT
 LAKE    INFLUX      SURFACE AREA   TIME STEP  CUMULATIVE    DISCREPANCY
   1   0.0000E+00     6.2500E+06   9.7681E-04 -1.3620E+01       0.000
   2   0.0000E+00     6.2500E+06  -3.0312E-02 -1.8875E+01       0.000
 --------------------------------------------------------------------------------



            CUMULATIVE HYDROLOGIC BUDGET SUMMARIES FOR SIMULATED LAKES
     (ALL FLUID FLUXES ARE SUMS OF VOLUMES ADDED TO THE LAKE SINCE INITIAL TIME)
     ---------------------------------------------------------------------------
 LAKE       PRECIP       EVAP       RUNOFF
   1     3.9190E+06  3.4798E+06  0.0000E+00
   2     3.9190E+06  3.4798E+06  0.0000E+00

            GROUND WATER            SURFACE WATER
 LAKE    INFLOW     OUTFLOW      INFLOW     OUTFLOW
   1  8.0010E+05  1.5644E+06  3.5580E+07  1.2038E+08
   2  3.5649E+06  1.4259E+06  1.2179E+08  2.4234E+08

         WATER    CONNECTED LAKE   CHANGE       PERCENT
 LAKE     USE         INFLUX       IN VOL.    DISCREPANCY
   1   0.0000E+00   0.0000E+00  -8.5125E+07      0.000
   2   0.0000E+00   0.0000E+00  -1.1797E+08      0.000
 --------------------------------------------------------------------------------

 
 SOLVING FOR HEAD 
     6 ITERATIONS FOR TIME STEP  13 IN STRESS PERIOD    1

 HEAD/DRAWDOWN PRINTOUT FLAG = 0     TOTAL BUDGET PRINTOUT FLAG = 0
 CELL-BY-CELL FLOW TERM FLAG = 1

 OUTPUT FLAGS FOR ALL LAYERS ARE THE SAME:
   HEAD    DRAWDOWN  HEAD  DRAWDOWN
 PRINTOUT  PRINTOUT  SAVE    SAVE
 ----------------------------------
     0         0       0       0



 STREAM LISTING     PERIOD      1   STEP       13

 LAYER ROW COL. STREAM  RCH.  FLOW INTO     FLOW TO   FLOW OUT OF   OVRLND.     DIRECT     STREAM       STREAM     STREAM     STREAM   STREAMBED  STREAMBED
                SEG.NO.  NO.  STRM. RCH.    AQUIFER    STRM. RCH.    RUNOFF     PRECIP       ET          HEAD       DEPTH      WIDTH   CONDCTNC.   GRADIENT

   1    2    5     1     1    6.9120E+05 -4.2926E+04   7.3413E+05  0.000E+00  0.000E+00  0.000E+00  1.25309E+02  1.361E+00  5.000E+00  5.000E+03 -1.717E+01
   1    3    5     1     2    7.3413E+05  3.0786E+03   7.3105E+05  0.000E+00  0.000E+00  0.000E+00  1.24228E+02  1.383E+00  5.000E+00  5.000E+03  1.231E+00
   1    4    5     1     3    7.3105E+05  9.3820E+03   7.2167E+05  0.000E+00  0.000E+00  0.000E+00  1.23118E+02  1.376E+00  5.000E+00  5.000E+03  3.753E+00
   1    4    6     1     4    7.2167E+05  6.1859E+03   7.1548E+05  0.000E+00  0.000E+00  0.000E+00  1.22005E+02  1.368E+00  5.000E+00  5.000E+03  2.474E+00
   1    4    7     1     5    7.1548E+05  1.5156E+03   7.1396E+05  0.000E+00  0.000E+00  0.000E+00  1.21173E+02  1.363E+00  5.000E+00  2.500E+03  1.212E+00
   1    4    8     1     6    7.1396E+05  7.3109E+02   7.1323E+05  0.000E+00  0.000E+00  0.000E+00  1.20483E+02  1.362E+00  5.000E+00  3.750E+03  3.899E-01
   1    5    8     1     7    7.1323E+05 -4.6114E+01   7.1328E+05  0.000E+00  0.000E+00  0.000E+00  1.19517E+02  1.361E+00  5.000E+00  5.000E+03 -1.845E-02
   1    6    8     1     8    7.1328E+05 -1.6742E+03   7.1495E+05  0.000E+00  0.000E+00  0.000E+00  1.18414E+02  1.362E+00  5.000E+00  5.000E+03 -6.697E-01
   1   12    9     2     1    7.5326E+05 -7.6931E+03   7.6095E+05  0.000E+00  0.000E+00  0.000E+00  1.15982E+02  1.542E+00  5.000E+00  5.000E+03 -3.077E+00
   1   13    9     2     2    7.6095E+05 -1.0119E+04   7.7107E+05  0.000E+00  0.000E+00  0.000E+00  1.15172E+02  1.553E+00  5.000E+00  5.000E+03 -4.048E+00
   1   14   10     2     3    7.7107E+05 -5.5657E+03   7.7663E+05  0.000E+00  0.000E+00  0.000E+00  1.14542E+02  1.562E+00  5.000E+00  2.795E+03 -3.983E+00
   1   14   10     2     4    7.7663E+05 -6.8270E+03   7.8346E+05  0.000E+00  0.000E+00  0.000E+00  1.14091E+02  1.570E+00  5.000E+00  2.795E+03 -4.885E+00
   1   15   10     2     5    7.8346E+05 -1.2868E+04   7.9633E+05  0.000E+00  0.000E+00  0.000E+00  1.13463E+02  1.582E+00  5.000E+00  5.000E+03 -5.147E+00
   1   16   10     2     6    7.9633E+05 -1.1532E+04   8.0786E+05  0.000E+00  0.000E+00  0.000E+00  1.12657E+02  1.596E+00  5.000E+00  5.000E+03 -4.613E+00
   1   22   10     3     1    9.3930E+05 -1.6236E+04   9.5554E+05  0.000E+00  0.000E+00  0.000E+00  1.10646E+02  1.691E+00  5.000E+00  5.000E+03 -6.494E+00
   1   23   10     3     2    9.5554E+05 -1.6534E+04   9.7207E+05  0.000E+00  0.000E+00  0.000E+00  1.09836E+02  1.708E+00  5.000E+00  3.750E+03 -8.818E+00
   1   23   11     3     3    9.7207E+05 -1.1942E+04   9.8401E+05  0.000E+00  0.000E+00  0.000E+00  1.09260E+02  1.723E+00  5.000E+00  2.500E+03 -9.554E+00
   1   23   12     3     4    9.8401E+05 -2.6171E+04   1.0102E+06  0.000E+00  0.000E+00  0.000E+00  1.08571E+02  1.743E+00  5.000E+00  5.000E+03 -1.047E+01
   1   23   13     3     5    1.0102E+06 -2.8291E+04   1.0385E+06  0.000E+00  0.000E+00  0.000E+00  1.07653E+02  1.772E+00  5.000E+00  5.000E+03 -1.132E+01
   1   23   14     3     6    1.0385E+06 -3.0839E+04   1.0693E+06  0.000E+00  0.000E+00  0.000E+00  1.06738E+02  1.802E+00  5.000E+00  5.000E+03 -1.234E+01
   1   23   15     3     7    1.0693E+06 -3.8128E+04   1.1074E+06  0.000E+00  0.000E+00  0.000E+00  1.05827E+02  1.837E+00  5.000E+00  5.000E+03 -1.525E+01
   1   23   16     3     8    1.1074E+06 -7.3996E+04   1.1814E+06  0.000E+00  0.000E+00  0.000E+00  1.04938E+02  1.894E+00  5.000E+00  5.000E+03 -2.960E+01





     0  LAKE CELLS ARE DRY.

 PERIOD     1     TIME STEP    13     TIME STEP LENGTH  4.6524E+00
 PERIOD TIME  5.8708E+01     TOTAL SIMULATION TIME  5.8708E+01


                 HYDROLOGIC BUDGET SUMMARIES FOR SIMULATED LAKES
     (ALL FLUID FLUXES ARE VOLUMES ADDED TO THE LAKE DURING PRESENT TIME STEP)
     -------------------------------------------------------------------------
 LAKE    STAGE         VOLUME     VOL.CHANGE      PRECIP     EVAPORATION        RUNOFF
   1   116.3874     8.1170E+07    4.6752E+04    3.3730E+05    2.9950E+05    0.0000E+00
   2   111.1105     4.8190E+07   -8.9708E+04    3.3730E+05    2.9950E+05    0.0000E+00

            GROUND WATER            SURFACE WATER        WATER
 LAKE    INFLOW     OUTFLOW      INFLOW     OUTFLOW       USE
   1  1.8715E+05  0.0000E+00  3.3262E+06  3.5044E+06  0.0000E+00
   2  4.8399E+05  0.0000E+00  3.7585E+06  4.3700E+06  0.0000E+00

      CONNECTED LAKE   TIME-STEP         STAGE-CHANGE          PERCENT
 LAKE    INFLUX      SURFACE AREA   TIME STEP  CUMULATIVE    DISCREPANCY
   1   0.0000E+00     6.2500E+06   7.4806E-03 -1.3613E+01       0.000
   2   0.0000E+00     6.2500E+06  -1.4354E-02 -1.8889E+01       0.000
 --------------------------------------------------------------------------------



            CUMULATIVE HYDROLOGIC BUDGET SUMMARIES FOR SIMULATED LAKES
     (ALL FLUID FLUXES ARE SUMS OF VOLUMES ADDED TO THE LAKE SINCE INITIAL TIME)
     ---------------------------------------------------------------------------
 LAKE       PRECIP       EVAP       RUNOFF
   1     4.2563E+06  3.7793E+06  0.0000E+00
   2     4.2563E+06  3.7793E+06  0.0000E+00

            GROUND WATER            SURFACE WATER
 LAKE    INFLOW     OUTFLOW      INFLOW     OUTFLOW
   1  9.8725E+05  1.5644E+06  3.8906E+07  1.2388E+08
   2  4.0489E+06  1.4259E+06  1.2555E+08  2.4671E+08

         WATER    CONNECTED LAKE   CHANGE       PERCENT
 LAKE     USE         INFLUX       IN VOL.    DISCREPANCY
   1   0.0000E+00   0.0000E+00  -8.5078E+07      0.000
   2   0.0000E+00   0.0000E+00  -1.1806E+08      0.000
 --------------------------------------------------------------------------------

 
 SOLVING FOR HEAD 
     6 ITERATIONS FOR TIME STEP  14 IN STRESS PERIOD    1

 HEAD/DRAWDOWN PRINTOUT FLAG = 0     TOTAL BUDGET PRINTOUT FLAG = 0
 CELL-BY-CELL FLOW TERM FLAG = 1

 OUTPUT FLAGS FOR ALL LAYERS ARE THE SAME:
   HEAD    DRAWDOWN  HEAD  DRAWDOWN
 PRINTOUT  PRINTOUT  SAVE    SAVE
 ----------------------------------
     0         0       0       0



 STREAM LISTING     PERIOD      1   STEP       14

 LAYER ROW COL. STREAM  RCH.  FLOW INTO     FLOW TO   FLOW OUT OF   OVRLND.     DIRECT     STREAM       STREAM     STREAM     STREAM   STREAMBED  STREAMBED
                SEG.NO.  NO.  STRM. RCH.    AQUIFER    STRM. RCH.    RUNOFF     PRECIP       ET          HEAD       DEPTH      WIDTH   CONDCTNC.   GRADIENT

   1    2    5     1     1    6.9120E+05 -4.5894E+04   7.3709E+05  0.000E+00  0.000E+00  0.000E+00  1.25311E+02  1.362E+00  5.000E+00  5.000E+03 -1.836E+01
   1    3    5     1     2    7.3709E+05  1.8174E+02   7.3691E+05  0.000E+00  0.000E+00  0.000E+00  1.24233E+02  1.388E+00  5.000E+00  5.000E+03  7.270E-02
   1    4    5     1     3    7.3691E+05  8.8800E+03   7.2803E+05  0.000E+00  0.000E+00  0.000E+00  1.23125E+02  1.383E+00  5.000E+00  5.000E+03  3.552E+00
   1    4    6     1     4    7.2803E+05  4.3027E+03   7.2373E+05  0.000E+00  0.000E+00  0.000E+00  1.22014E+02  1.376E+00  5.000E+00  5.000E+03  1.721E+00
   1    4    7     1     5    7.2373E+05  7.3688E+02   7.2299E+05  0.000E+00  0.000E+00  0.000E+00  1.21183E+02  1.373E+00  5.000E+00  2.500E+03  5.895E-01
   1    4    8     1     6    7.2299E+05 -2.7244E+02   7.2327E+05  0.000E+00  0.000E+00  0.000E+00  1.20493E+02  1.373E+00  5.000E+00  3.750E+03 -1.453E-01
   1    5    8     1     7    7.2327E+05 -8.6561E+02   7.2413E+05  0.000E+00  0.000E+00  0.000E+00  1.19529E+02  1.373E+00  5.000E+00  5.000E+03 -3.462E-01
   1    6    8     1     8    7.2413E+05 -2.1202E+03   7.2625E+05  0.000E+00  0.000E+00  0.000E+00  1.18427E+02  1.375E+00  5.000E+00  5.000E+03 -8.481E-01
   1   12    9     2     1    7.6249E+05 -7.9073E+03   7.7039E+05  0.000E+00  0.000E+00  0.000E+00  1.15993E+02  1.553E+00  5.000E+00  5.000E+03 -3.163E+00
   1   13    9     2     2    7.7039E+05 -1.0509E+04   7.8090E+05  0.000E+00  0.000E+00  0.000E+00  1.15184E+02  1.565E+00  5.000E+00  5.000E+03 -4.203E+00
   1   14   10     2     3    7.8090E+05 -5.7516E+03   7.8665E+05  0.000E+00  0.000E+00  0.000E+00  1.14554E+02  1.574E+00  5.000E+00  2.795E+03 -4.116E+00
   1   14   10     2     4    7.8665E+05 -7.0123E+03   7.9367E+05  0.000E+00  0.000E+00  0.000E+00  1.14103E+02  1.582E+00  5.000E+00  2.795E+03 -5.018E+00
   1   15   10     2     5    7.9367E+05 -1.3093E+04   8.0676E+05  0.000E+00  0.000E+00  0.000E+00  1.13475E+02  1.594E+00  5.000E+00  5.000E+03 -5.237E+00
   1   16   10     2     6    8.0676E+05 -1.1437E+04   8.1820E+05  0.000E+00  0.000E+00  0.000E+00  1.12669E+02  1.609E+00  5.000E+00  5.000E+03 -4.575E+00
   1   22   10     3     1    9.3607E+05 -1.5934E+04   9.5201E+05  0.000E+00  0.000E+00  0.000E+00  1.10643E+02  1.687E+00  5.000E+00  5.000E+03 -6.373E+00
   1   23   10     3     2    9.5201E+05 -1.6479E+04   9.6849E+05  0.000E+00  0.000E+00  0.000E+00  1.09832E+02  1.704E+00  5.000E+00  3.750E+03 -8.789E+00
   1   23   11     3     3    9.6849E+05 -1.1808E+04   9.8029E+05  0.000E+00  0.000E+00  0.000E+00  1.09256E+02  1.719E+00  5.000E+00  2.500E+03 -9.447E+00
   1   23   12     3     4    9.8029E+05 -2.5898E+04   1.0062E+06  0.000E+00  0.000E+00  0.000E+00  1.08567E+02  1.739E+00  5.000E+00  5.000E+03 -1.036E+01
   1   23   13     3     5    1.0062E+06 -2.8014E+04   1.0342E+06  0.000E+00  0.000E+00  0.000E+00  1.07649E+02  1.767E+00  5.000E+00  5.000E+03 -1.121E+01
   1   23   14     3     6    1.0342E+06 -3.0601E+04   1.0648E+06  0.000E+00  0.000E+00  0.000E+00  1.06734E+02  1.798E+00  5.000E+00  5.000E+03 -1.224E+01
   1   23   15     3     7    1.0648E+06 -3.8269E+04   1.1031E+06  0.000E+00  0.000E+00  0.000E+00  1.05823E+02  1.833E+00  5.000E+00  5.000E+03 -1.531E+01
   1   23   16     3     8    1.1031E+06 -7.4895E+04   1.1780E+06  0.000E+00  0.000E+00  0.000E+00  1.04934E+02  1.890E+00  5.000E+00  5.000E+03 -2.996E+01





     0  LAKE CELLS ARE DRY.

 PERIOD     1     TIME STEP    14     TIME STEP LENGTH  4.6756E+00
 PERIOD TIME  6.3383E+01     TOTAL SIMULATION TIME  6.3383E+01


                 HYDROLOGIC BUDGET SUMMARIES FOR SIMULATED LAKES
     (ALL FLUID FLUXES ARE VOLUMES ADDED TO THE LAKE DURING PRESENT TIME STEP)
     -------------------------------------------------------------------------
 LAKE    STAGE         VOLUME     VOL.CHANGE      PRECIP     EVAPORATION        RUNOFF
   1   116.3987     8.1241E+07    7.1056E+04    3.3898E+05    3.0099E+05    0.0000E+00
   2   111.1070     4.8168E+07   -2.1672E+04    3.3898E+05    3.0099E+05    0.0000E+00

            GROUND WATER            SURFACE WATER        WATER
 LAKE    INFLOW     OUTFLOW      INFLOW     OUTFLOW       USE
   1  2.0249E+05  0.0000E+00  3.3957E+06  3.5651E+06  0.0000E+00
   2  4.9149E+05  0.0000E+00  3.8256E+06  4.3767E+06  0.0000E+00

      CONNECTED LAKE   TIME-STEP         STAGE-CHANGE          PERCENT
 LAKE    INFLUX      SURFACE AREA   TIME STEP  CUMULATIVE    DISCREPANCY
   1   0.0000E+00     6.2500E+06   1.1368E-02 -1.3601E+01       0.000
   2   0.0000E+00     6.2500E+06  -3.4673E-03 -1.8893E+01       0.000
 --------------------------------------------------------------------------------



            CUMULATIVE HYDROLOGIC BUDGET SUMMARIES FOR SIMULATED LAKES
     (ALL FLUID FLUXES ARE SUMS OF VOLUMES ADDED TO THE LAKE SINCE INITIAL TIME)
     ---------------------------------------------------------------------------
 LAKE       PRECIP       EVAP       RUNOFF
   1     4.5953E+06  4.0803E+06  0.0000E+00
   2     4.5953E+06  4.0803E+06  0.0000E+00

            GROUND WATER            SURFACE WATER
 LAKE    INFLOW     OUTFLOW      INFLOW     OUTFLOW
   1  1.1897E+06  1.5644E+06  4.2302E+07  1.2745E+08
   2  4.5403E+06  1.4259E+06  1.2938E+08  2.5109E+08

         WATER    CONNECTED LAKE   CHANGE       PERCENT
 LAKE     USE         INFLUX       IN VOL.    DISCREPANCY
   1   0.0000E+00   0.0000E+00  -8.5007E+07      0.000
   2   0.0000E+00   0.0000E+00  -1.1808E+08      0.000
 --------------------------------------------------------------------------------

 
 SOLVING FOR HEAD 
     6 ITERATIONS FOR TIME STEP  15 IN STRESS PERIOD    1

 HEAD/DRAWDOWN PRINTOUT FLAG = 0     TOTAL BUDGET PRINTOUT FLAG = 0
 CELL-BY-CELL FLOW TERM FLAG = 1

 OUTPUT FLAGS FOR ALL LAYERS ARE THE SAME:
   HEAD    DRAWDOWN  HEAD  DRAWDOWN
 PRINTOUT  PRINTOUT  SAVE    SAVE
 ----------------------------------
     0         0       0       0



 STREAM LISTING     PERIOD      1   STEP       15

 LAYER ROW COL. STREAM  RCH.  FLOW INTO     FLOW TO   FLOW OUT OF   OVRLND.     DIRECT     STREAM       STREAM     STREAM     STREAM   STREAMBED  STREAMBED
                SEG.NO.  NO.  STRM. RCH.    AQUIFER    STRM. RCH.    RUNOFF     PRECIP       ET          HEAD       DEPTH      WIDTH   CONDCTNC.   GRADIENT

   1    2    5     1     1    6.9120E+05 -4.8579E+04   7.3978E+05  0.000E+00  0.000E+00  0.000E+00  1.25312E+02  1.364E+00  5.000E+00  5.000E+03 -1.943E+01
   1    3    5     1     2    7.3978E+05 -2.5199E+03   7.4230E+05  0.000E+00  0.000E+00  0.000E+00  1.24238E+02  1.393E+00  5.000E+00  5.000E+03 -1.008E+00
   1    4    5     1     3    7.4230E+05  6.7528E+03   7.3555E+05  0.000E+00  0.000E+00  0.000E+00  1.23132E+02  1.391E+00  5.000E+00  5.000E+03  2.701E+00
   1    4    6     1     4    7.3555E+05  2.5506E+03   7.3300E+05  0.000E+00  0.000E+00  0.000E+00  1.22023E+02  1.385E+00  5.000E+00  5.000E+03  1.020E+00
   1    4    7     1     5    7.3300E+05  3.1782E+00   7.3299E+05  0.000E+00  0.000E+00  0.000E+00  1.21194E+02  1.384E+00  5.000E+00  2.500E+03  2.543E-03
   1    4    8     1     6    7.3299E+05 -1.2380E+03   7.3423E+05  0.000E+00  0.000E+00  0.000E+00  1.20505E+02  1.385E+00  5.000E+00  3.750E+03 -6.603E-01
   1    5    8     1     7    7.3423E+05 -1.6471E+03   7.3588E+05  0.000E+00  0.000E+00  0.000E+00  1.19541E+02  1.386E+00  5.000E+00  5.000E+03 -6.588E-01
   1    6    8     1     8    7.3588E+05 -2.5455E+03   7.3842E+05  0.000E+00  0.000E+00  0.000E+00  1.18440E+02  1.389E+00  5.000E+00  5.000E+03 -1.018E+00
   1   12    9     2     1    7.7414E+05 -8.1220E+03   7.8226E+05  0.000E+00  0.000E+00  0.000E+00  1.16007E+02  1.568E+00  5.000E+00  5.000E+03 -3.249E+00
   1   13    9     2     2    7.8226E+05 -1.0893E+04   7.9316E+05  0.000E+00  0.000E+00  0.000E+00  1.15198E+02  1.579E+00  5.000E+00  5.000E+03 -4.357E+00
   1   14   10     2     3    7.9316E+05 -5.9388E+03   7.9909E+05  0.000E+00  0.000E+00  0.000E+00  1.14569E+02  1.589E+00  5.000E+00  2.795E+03 -4.250E+00
   1   14   10     2     4    7.9909E+05 -7.1991E+03   8.0629E+05  0.000E+00  0.000E+00  0.000E+00  1.14118E+02  1.597E+00  5.000E+00  2.795E+03 -5.151E+00
   1   15   10     2     5    8.0629E+05 -1.3325E+04   8.1962E+05  0.000E+00  0.000E+00  0.000E+00  1.13490E+02  1.609E+00  5.000E+00  5.000E+03 -5.330E+00
   1   16   10     2     6    8.1962E+05 -1.1378E+04   8.3100E+05  0.000E+00  0.000E+00  0.000E+00  1.12684E+02  1.624E+00  5.000E+00  5.000E+03 -4.551E+00
   1   22   10     3     1    9.3986E+05 -1.5679E+04   9.5554E+05  0.000E+00  0.000E+00  0.000E+00  1.10647E+02  1.691E+00  5.000E+00  5.000E+03 -6.271E+00
   1   23   10     3     2    9.5554E+05 -1.6458E+04   9.7200E+05  0.000E+00  0.000E+00  0.000E+00  1.09836E+02  1.708E+00  5.000E+00  3.750E+03 -8.778E+00
   1   23   11     3     3    9.7200E+05 -1.1704E+04   9.8370E+05  0.000E+00  0.000E+00  0.000E+00  1.09260E+02  1.723E+00  5.000E+00  2.500E+03 -9.363E+00
   1   23   12     3     4    9.8370E+05 -2.5680E+04   1.0094E+06  0.000E+00  0.000E+00  0.000E+00  1.08570E+02  1.743E+00  5.000E+00  5.000E+03 -1.027E+01
   1   23   13     3     5    1.0094E+06 -2.7803E+04   1.0372E+06  0.000E+00  0.000E+00  0.000E+00  1.07652E+02  1.771E+00  5.000E+00  5.000E+03 -1.112E+01
   1   23   14     3     6    1.0372E+06 -3.0443E+04   1.0676E+06  0.000E+00  0.000E+00  0.000E+00  1.06737E+02  1.801E+00  5.000E+00  5.000E+03 -1.218E+01
   1   23   15     3     7    1.0676E+06 -3.8481E+04   1.1061E+06  0.000E+00  0.000E+00  0.000E+00  1.05826E+02  1.836E+00  5.000E+00  5.000E+03 -1.539E+01
   1   23   16     3     8    1.1061E+06 -7.5734E+04   1.1818E+06  0.000E+00  0.000E+00  0.000E+00  1.04937E+02  1.893E+00  5.000E+00  5.000E+03 -3.029E+01





     0  LAKE CELLS ARE DRY.

 PERIOD     1     TIME STEP    15     TIME STEP LENGTH  4.6990E+00
 PERIOD TIME  6.8082E+01     TOTAL SIMULATION TIME  6.8082E+01


                 HYDROLOGIC BUDGET SUMMARIES FOR SIMULATED LAKES
     (ALL FLUID FLUXES ARE VOLUMES ADDED TO THE LAKE DURING PRESENT TIME STEP)
     -------------------------------------------------------------------------
 LAKE    STAGE         VOLUME     VOL.CHANGE      PRECIP     EVAPORATION        RUNOFF
   1   116.4128     8.1329E+07    8.7952E+04    3.4068E+05    3.0250E+05    0.0000E+00
   2   111.1111     4.8194E+07    2.5520E+04    3.4068E+05    3.0250E+05    0.0000E+00

            GROUND WATER            SURFACE WATER        WATER
 LAKE    INFLOW     OUTFLOW      INFLOW     OUTFLOW       USE
   1  2.1761E+05  0.0000E+00  3.4698E+06  3.6377E+06  0.0000E+00
   2  4.9888E+05  0.0000E+00  3.9048E+06  4.4164E+06  0.0000E+00

      CONNECTED LAKE   TIME-STEP         STAGE-CHANGE          PERCENT
 LAKE    INFLUX      SURFACE AREA   TIME STEP  CUMULATIVE    DISCREPANCY
   1   0.0000E+00     6.2500E+06   1.4072E-02 -1.3587E+01       0.000
   2   0.0000E+00     6.2500E+06   4.0829E-03 -1.8889E+01       0.000
 --------------------------------------------------------------------------------



            CUMULATIVE HYDROLOGIC BUDGET SUMMARIES FOR SIMULATED LAKES
     (ALL FLUID FLUXES ARE SUMS OF VOLUMES ADDED TO THE LAKE SINCE INITIAL TIME)
     ---------------------------------------------------------------------------
 LAKE       PRECIP       EVAP       RUNOFF
   1     4.9360E+06  4.3828E+06  0.0000E+00
   2     4.9360E+06  4.3828E+06  0.0000E+00

            GROUND WATER            SURFACE WATER
 LAKE    INFLOW     OUTFLOW      INFLOW     OUTFLOW
   1  1.4074E+06  1.5644E+06  4.5772E+07  1.3109E+08
   2  5.0392E+06  1.4259E+06  1.3328E+08  2.5550E+08

         WATER    CONNECTED LAKE   CHANGE       PERCENT
 LAKE     USE         INFLUX       IN VOL.    DISCREPANCY
   1   0.0000E+00   0.0000E+00  -8.4919E+07      0.000
   2   0.0000E+00   0.0000E+00  -1.1805E+08      0.000
 --------------------------------------------------------------------------------

 
 SOLVING FOR HEAD 
     6 ITERATIONS FOR TIME STEP  16 IN STRESS PERIOD    1

 HEAD/DRAWDOWN PRINTOUT FLAG = 0     TOTAL BUDGET PRINTOUT FLAG = 0
 CELL-BY-CELL FLOW TERM FLAG = 1

 OUTPUT FLAGS FOR ALL LAYERS ARE THE SAME:
   HEAD    DRAWDOWN  HEAD  DRAWDOWN
 PRINTOUT  PRINTOUT  SAVE    SAVE
 ----------------------------------
     0         0       0       0



 STREAM LISTING     PERIOD      1   STEP       16

 LAYER ROW COL. STREAM  RCH.  FLOW INTO     FLOW TO   FLOW OUT OF   OVRLND.     DIRECT     STREAM       STREAM     STREAM     STREAM   STREAMBED  STREAMBED
                SEG.NO.  NO.  STRM. RCH.    AQUIFER    STRM. RCH.    RUNOFF     PRECIP       ET          HEAD       DEPTH      WIDTH   CONDCTNC.   GRADIENT

   1    2    5     1     1    6.9120E+05 -5.1013E+04   7.4221E+05  0.000E+00  0.000E+00  0.000E+00  1.25314E+02  1.365E+00  5.000E+00  5.000E+03 -2.041E+01
   1    3    5     1     2    7.4221E+05 -5.0529E+03   7.4727E+05  0.000E+00  0.000E+00  0.000E+00  1.24242E+02  1.397E+00  5.000E+00  5.000E+03 -2.021E+00
   1    4    5     1     3    7.4727E+05  4.7942E+03   7.4247E+05  0.000E+00  0.000E+00  0.000E+00  1.23139E+02  1.397E+00  5.000E+00  5.000E+03  1.918E+00
   1    4    6     1     4    7.4247E+05  9.0301E+02   7.4157E+05  0.000E+00  0.000E+00  0.000E+00  1.22032E+02  1.394E+00  5.000E+00  5.000E+03  3.612E-01
   1    4    7     1     5    7.4157E+05 -6.9667E+02   7.4227E+05  0.000E+00  0.000E+00  0.000E+00  1.21204E+02  1.394E+00  5.000E+00  2.500E+03 -5.573E-01
   1    4    8     1     6    7.4227E+05 -2.1788E+03   7.4444E+05  0.000E+00  0.000E+00  0.000E+00  1.20516E+02  1.396E+00  5.000E+00  3.750E+03 -1.162E+00
   1    5    8     1     7    7.4444E+05 -2.4044E+03   7.4685E+05  0.000E+00  0.000E+00  0.000E+00  1.19553E+02  1.398E+00  5.000E+00  5.000E+03 -9.617E-01
   1    6    8     1     8    7.4685E+05 -2.9609E+03   7.4981E+05  0.000E+00  0.000E+00  0.000E+00  1.18453E+02  1.401E+00  5.000E+00  5.000E+03 -1.184E+00
   1   12    9     2     1    7.8688E+05 -8.3406E+03   7.9522E+05  0.000E+00  0.000E+00  0.000E+00  1.16023E+02  1.583E+00  5.000E+00  5.000E+03 -3.336E+00
   1   13    9     2     2    7.9522E+05 -1.1276E+04   8.0650E+05  0.000E+00  0.000E+00  0.000E+00  1.15214E+02  1.595E+00  5.000E+00  5.000E+03 -4.510E+00
   1   14   10     2     3    8.0650E+05 -6.1290E+03   8.1263E+05  0.000E+00  0.000E+00  0.000E+00  1.14585E+02  1.605E+00  5.000E+00  2.795E+03 -4.386E+00
   1   14   10     2     4    8.1263E+05 -7.3887E+03   8.2001E+05  0.000E+00  0.000E+00  0.000E+00  1.14134E+02  1.613E+00  5.000E+00  2.795E+03 -5.287E+00
   1   15   10     2     5    8.2001E+05 -1.3566E+04   8.3358E+05  0.000E+00  0.000E+00  0.000E+00  1.13507E+02  1.626E+00  5.000E+00  5.000E+03 -5.426E+00
   1   16   10     2     6    8.3358E+05 -1.1354E+04   8.4493E+05  0.000E+00  0.000E+00  0.000E+00  1.12701E+02  1.640E+00  5.000E+00  5.000E+03 -4.542E+00
   1   22   10     3     1    9.4828E+05 -1.5469E+04   9.6375E+05  0.000E+00  0.000E+00  0.000E+00  1.10655E+02  1.700E+00  5.000E+00  5.000E+03 -6.188E+00
   1   23   10     3     2    9.6375E+05 -1.6472E+04   9.8022E+05  0.000E+00  0.000E+00  0.000E+00  1.09845E+02  1.717E+00  5.000E+00  3.750E+03 -8.785E+00
   1   23   11     3     3    9.8022E+05 -1.1631E+04   9.9185E+05  0.000E+00  0.000E+00  0.000E+00  1.09269E+02  1.732E+00  5.000E+00  2.500E+03 -9.305E+00
   1   23   12     3     4    9.9185E+05 -2.5519E+04   1.0174E+06  0.000E+00  0.000E+00  0.000E+00  1.08579E+02  1.751E+00  5.000E+00  5.000E+03 -1.021E+01
   1   23   13     3     5    1.0174E+06 -2.7660E+04   1.0450E+06  0.000E+00  0.000E+00  0.000E+00  1.07661E+02  1.779E+00  5.000E+00  5.000E+03 -1.106E+01
   1   23   14     3     6    1.0450E+06 -3.0364E+04   1.0754E+06  0.000E+00  0.000E+00  0.000E+00  1.06745E+02  1.809E+00  5.000E+00  5.000E+03 -1.215E+01
   1   23   15     3     7    1.0754E+06 -3.8760E+04   1.1142E+06  0.000E+00  0.000E+00  0.000E+00  1.05834E+02  1.844E+00  5.000E+00  5.000E+03 -1.550E+01
   1   23   16     3     8    1.1142E+06 -7.6521E+04   1.1907E+06  0.000E+00  0.000E+00  0.000E+00  1.04946E+02  1.901E+00  5.000E+00  5.000E+03 -3.061E+01





     0  LAKE CELLS ARE DRY.

 PERIOD     1     TIME STEP    16     TIME STEP LENGTH  4.7225E+00
 PERIOD TIME  7.2805E+01     TOTAL SIMULATION TIME  7.2805E+01


                 HYDROLOGIC BUDGET SUMMARIES FOR SIMULATED LAKES
     (ALL FLUID FLUXES ARE VOLUMES ADDED TO THE LAKE DURING PRESENT TIME STEP)
     -------------------------------------------------------------------------
 LAKE    STAGE         VOLUME     VOL.CHANGE      PRECIP     EVAPORATION        RUNOFF
   1   116.4281     8.1425E+07    9.5944E+04    3.4238E+05    3.0401E+05    0.0000E+00
   2   111.1202     4.8250E+07    5.6716E+04    3.4238E+05    3.0401E+05    0.0000E+00

            GROUND WATER            SURFACE WATER        WATER
 LAKE    INFLOW     OUTFLOW      INFLOW     OUTFLOW       USE
   1  2.3264E+05  0.0000E+00  3.5410E+06  3.7160E+06  0.0000E+00
   2  5.0639E+05  0.0000E+00  3.9902E+06  4.4782E+06  0.0000E+00

      CONNECTED LAKE   TIME-STEP         STAGE-CHANGE          PERCENT
 LAKE    INFLUX      SURFACE AREA   TIME STEP  CUMULATIVE    DISCREPANCY
   1   0.0000E+00     6.2500E+06   1.5351E-02 -1.3572E+01       0.000
   2   0.0000E+00     6.2500E+06   9.0747E-03 -1.8880E+01       0.000
 --------------------------------------------------------------------------------



            CUMULATIVE HYDROLOGIC BUDGET SUMMARIES FOR SIMULATED LAKES
     (ALL FLUID FLUXES ARE SUMS OF VOLUMES ADDED TO THE LAKE SINCE INITIAL TIME)
     ---------------------------------------------------------------------------
 LAKE       PRECIP       EVAP       RUNOFF
   1     5.2784E+06  4.6868E+06  0.0000E+00
   2     5.2784E+06  4.6868E+06  0.0000E+00

            GROUND WATER            SURFACE WATER
 LAKE    INFLOW     OUTFLOW      INFLOW     OUTFLOW
   1  1.6400E+06  1.5644E+06  4.9313E+07  1.3480E+08
   2  5.5456E+06  1.4259E+06  1.3727E+08  2.5998E+08

         WATER    CONNECTED LAKE   CHANGE       PERCENT
 LAKE     USE         INFLUX       IN VOL.    DISCREPANCY
   1   0.0000E+00   0.0000E+00  -8.4823E+07      0.000
   2   0.0000E+00   0.0000E+00  -1.1800E+08      0.000
 --------------------------------------------------------------------------------

 
 SOLVING FOR HEAD 
     6 ITERATIONS FOR TIME STEP  17 IN STRESS PERIOD    1

 HEAD/DRAWDOWN PRINTOUT FLAG = 0     TOTAL BUDGET PRINTOUT FLAG = 0
 CELL-BY-CELL FLOW TERM FLAG = 1

 OUTPUT FLAGS FOR ALL LAYERS ARE THE SAME:
   HEAD    DRAWDOWN  HEAD  DRAWDOWN
 PRINTOUT  PRINTOUT  SAVE    SAVE
 ----------------------------------
     0         0       0       0



 STREAM LISTING     PERIOD      1   STEP       17

 LAYER ROW COL. STREAM  RCH.  FLOW INTO     FLOW TO   FLOW OUT OF   OVRLND.     DIRECT     STREAM       STREAM     STREAM     STREAM   STREAMBED  STREAMBED
                SEG.NO.  NO.  STRM. RCH.    AQUIFER    STRM. RCH.    RUNOFF     PRECIP       ET          HEAD       DEPTH      WIDTH   CONDCTNC.   GRADIENT

   1    2    5     1     1    6.9120E+05 -5.3222E+04   7.4442E+05  0.000E+00  0.000E+00  0.000E+00  1.25315E+02  1.367E+00  5.000E+00  5.000E+03 -2.129E+01
   1    3    5     1     2    7.4442E+05 -7.4386E+03   7.5186E+05  0.000E+00  0.000E+00  0.000E+00  1.24246E+02  1.401E+00  5.000E+00  5.000E+03 -2.975E+00
   1    4    5     1     3    7.5186E+05  2.9730E+03   7.4889E+05  0.000E+00  0.000E+00  0.000E+00  1.23145E+02  1.404E+00  5.000E+00  5.000E+03  1.189E+00
   1    4    6     1     4    7.4889E+05 -6.5383E+02   7.4954E+05  0.000E+00  0.000E+00  0.000E+00  1.22040E+02  1.402E+00  5.000E+00  5.000E+03 -2.615E-01
   1    4    7     1     5    7.4954E+05 -1.3674E+03   7.5091E+05  0.000E+00  0.000E+00  0.000E+00  1.21214E+02  1.403E+00  5.000E+00  2.500E+03 -1.094E+00
   1    4    8     1     6    7.5091E+05 -3.0986E+03   7.5401E+05  0.000E+00  0.000E+00  0.000E+00  1.20527E+02  1.406E+00  5.000E+00  3.750E+03 -1.653E+00
   1    5    8     1     7    7.5401E+05 -3.1403E+03   7.5715E+05  0.000E+00  0.000E+00  0.000E+00  1.19565E+02  1.409E+00  5.000E+00  5.000E+03 -1.256E+00
   1    6    8     1     8    7.5715E+05 -3.3670E+03   7.6051E+05  0.000E+00  0.000E+00  0.000E+00  1.18465E+02  1.413E+00  5.000E+00  5.000E+03 -1.347E+00
   1   12    9     2     1    8.0000E+05 -8.5635E+03   8.0856E+05  0.000E+00  0.000E+00  0.000E+00  1.16039E+02  1.599E+00  5.000E+00  5.000E+03 -3.425E+00
   1   13    9     2     2    8.0856E+05 -1.1658E+04   8.2022E+05  0.000E+00  0.000E+00  0.000E+00  1.15230E+02  1.611E+00  5.000E+00  5.000E+03 -4.663E+00
   1   14   10     2     3    8.2022E+05 -6.3221E+03   8.2654E+05  0.000E+00  0.000E+00  0.000E+00  1.14601E+02  1.622E+00  5.000E+00  2.795E+03 -4.524E+00
   1   14   10     2     4    8.2654E+05 -7.5813E+03   8.3413E+05  0.000E+00  0.000E+00  0.000E+00  1.14151E+02  1.630E+00  5.000E+00  2.795E+03 -5.425E+00
   1   15   10     2     5    8.3413E+05 -1.3817E+04   8.4794E+05  0.000E+00  0.000E+00  0.000E+00  1.13523E+02  1.643E+00  5.000E+00  5.000E+03 -5.527E+00
   1   16   10     2     6    8.4794E+05 -1.1361E+04   8.5930E+05  0.000E+00  0.000E+00  0.000E+00  1.12718E+02  1.657E+00  5.000E+00  5.000E+03 -4.545E+00
   1   22   10     3     1    9.5968E+05 -1.5301E+04   9.7498E+05  0.000E+00  0.000E+00  0.000E+00  1.10667E+02  1.712E+00  5.000E+00  5.000E+03 -6.120E+00
   1   23   10     3     2    9.7498E+05 -1.6521E+04   9.9150E+05  0.000E+00  0.000E+00  0.000E+00  1.09857E+02  1.729E+00  5.000E+00  3.750E+03 -8.811E+00
   1   23   11     3     3    9.9150E+05 -1.1588E+04   1.0031E+06  0.000E+00  0.000E+00  0.000E+00  1.09280E+02  1.743E+00  5.000E+00  2.500E+03 -9.270E+00
   1   23   12     3     4    1.0031E+06 -2.5415E+04   1.0285E+06  0.000E+00  0.000E+00  0.000E+00  1.08590E+02  1.763E+00  5.000E+00  5.000E+03 -1.017E+01
   1   23   13     3     5    1.0285E+06 -2.7581E+04   1.0561E+06  0.000E+00  0.000E+00  0.000E+00  1.07672E+02  1.790E+00  5.000E+00  5.000E+03 -1.103E+01
   1   23   14     3     6    1.0561E+06 -3.0362E+04   1.0864E+06  0.000E+00  0.000E+00  0.000E+00  1.06756E+02  1.820E+00  5.000E+00  5.000E+03 -1.214E+01
   1   23   15     3     7    1.0864E+06 -3.9100E+04   1.1255E+06  0.000E+00  0.000E+00  0.000E+00  1.05845E+02  1.855E+00  5.000E+00  5.000E+03 -1.564E+01
   1   23   16     3     8    1.1255E+06 -7.7261E+04   1.2028E+06  0.000E+00  0.000E+00  0.000E+00  1.04957E+02  1.913E+00  5.000E+00  5.000E+03 -3.090E+01





     0  LAKE CELLS ARE DRY.

 PERIOD     1     TIME STEP    17     TIME STEP LENGTH  4.7461E+00
 PERIOD TIME  7.7551E+01     TOTAL SIMULATION TIME  7.7551E+01


                 HYDROLOGIC BUDGET SUMMARIES FOR SIMULATED LAKES
     (ALL FLUID FLUXES ARE VOLUMES ADDED TO THE LAKE DURING PRESENT TIME STEP)
     -------------------------------------------------------------------------
 LAKE    STAGE         VOLUME     VOL.CHANGE      PRECIP     EVAPORATION        RUNOFF
   1   116.4440     8.1524E+07    9.8824E+04    3.4409E+05    3.0553E+05    0.0000E+00
   2   111.1324     4.8327E+07    7.6308E+04    3.4409E+05    3.0553E+05    0.0000E+00

            GROUND WATER            SURFACE WATER        WATER
 LAKE    INFLOW     OUTFLOW      INFLOW     OUTFLOW       USE
   1  2.4766E+05  0.0000E+00  3.6095E+06  3.7969E+06  0.0000E+00
   2  5.1414E+05  0.0000E+00  4.0783E+06  4.5547E+06  0.0000E+00

      CONNECTED LAKE   TIME-STEP         STAGE-CHANGE          PERCENT
 LAKE    INFLUX      SURFACE AREA   TIME STEP  CUMULATIVE    DISCREPANCY
   1   0.0000E+00     6.2500E+06   1.5811E-02 -1.3556E+01       0.000
   2   0.0000E+00     6.2500E+06   1.2210E-02 -1.8868E+01       0.000
 --------------------------------------------------------------------------------



            CUMULATIVE HYDROLOGIC BUDGET SUMMARIES FOR SIMULATED LAKES
     (ALL FLUID FLUXES ARE SUMS OF VOLUMES ADDED TO THE LAKE SINCE INITIAL TIME)
     ---------------------------------------------------------------------------
 LAKE       PRECIP       EVAP       RUNOFF
   1     5.6224E+06  4.9923E+06  0.0000E+00
   2     5.6224E+06  4.9923E+06  0.0000E+00

            GROUND WATER            SURFACE WATER
 LAKE    INFLOW     OUTFLOW      INFLOW     OUTFLOW
   1  1.8877E+06  1.5644E+06  5.2922E+07  1.3860E+08
   2  6.0598E+06  1.4259E+06  1.4135E+08  2.6454E+08

         WATER    CONNECTED LAKE   CHANGE       PERCENT
 LAKE     USE         INFLUX       IN VOL.    DISCREPANCY
   1   0.0000E+00   0.0000E+00  -8.4725E+07      0.000
   2   0.0000E+00   0.0000E+00  -1.1792E+08      0.000
 --------------------------------------------------------------------------------

 
 SOLVING FOR HEAD 
     6 ITERATIONS FOR TIME STEP  18 IN STRESS PERIOD    1

 HEAD/DRAWDOWN PRINTOUT FLAG = 0     TOTAL BUDGET PRINTOUT FLAG = 0
 CELL-BY-CELL FLOW TERM FLAG = 1

 OUTPUT FLAGS FOR ALL LAYERS ARE THE SAME:
   HEAD    DRAWDOWN  HEAD  DRAWDOWN
 PRINTOUT  PRINTOUT  SAVE    SAVE
 ----------------------------------
     0         0       0       0



 STREAM LISTING     PERIOD      1   STEP       18

 LAYER ROW COL. STREAM  RCH.  FLOW INTO     FLOW TO   FLOW OUT OF   OVRLND.     DIRECT     STREAM       STREAM     STREAM     STREAM   STREAMBED  STREAMBED
                SEG.NO.  NO.  STRM. RCH.    AQUIFER    STRM. RCH.    RUNOFF     PRECIP       ET          HEAD       DEPTH      WIDTH   CONDCTNC.   GRADIENT

   1    2    5     1     1    6.9120E+05 -5.5227E+04   7.4643E+05  0.000E+00  0.000E+00  0.000E+00  1.25316E+02  1.368E+00  5.000E+00  5.000E+03 -2.209E+01
   1    3    5     1     2    7.4643E+05 -9.6947E+03   7.5612E+05  0.000E+00  0.000E+00  0.000E+00  1.24249E+02  1.405E+00  5.000E+00  5.000E+03 -3.878E+00
   1    4    5     1     3    7.5612E+05  1.2635E+03   7.5486E+05  0.000E+00  0.000E+00  0.000E+00  1.23151E+02  1.409E+00  5.000E+00  5.000E+03  5.054E-01
   1    4    6     1     4    7.5486E+05 -2.1311E+03   7.5699E+05  0.000E+00  0.000E+00  0.000E+00  1.22048E+02  1.410E+00  5.000E+00  5.000E+03 -8.524E-01
   1    4    7     1     5    7.5699E+05 -2.0128E+03   7.5900E+05  0.000E+00  0.000E+00  0.000E+00  1.21222E+02  1.412E+00  5.000E+00  2.500E+03 -1.610E+00
   1    4    8     1     6    7.5900E+05 -4.0001E+03   7.6300E+05  0.000E+00  0.000E+00  0.000E+00  1.20536E+02  1.415E+00  5.000E+00  3.750E+03 -2.133E+00
   1    5    8     1     7    7.6300E+05 -3.8574E+03   7.6686E+05  0.000E+00  0.000E+00  0.000E+00  1.19575E+02  1.420E+00  5.000E+00  5.000E+03 -1.543E+00
   1    6    8     1     8    7.6686E+05 -3.7641E+03   7.7062E+05  0.000E+00  0.000E+00  0.000E+00  1.18476E+02  1.424E+00  5.000E+00  5.000E+03 -1.506E+00
   1   12    9     2     1    8.1322E+05 -8.7896E+03   8.2201E+05  0.000E+00  0.000E+00  0.000E+00  1.16055E+02  1.615E+00  5.000E+00  5.000E+03 -3.516E+00
   1   13    9     2     2    8.2201E+05 -1.2041E+04   8.3405E+05  0.000E+00  0.000E+00  0.000E+00  1.15246E+02  1.627E+00  5.000E+00  5.000E+03 -4.816E+00
   1   14   10     2     3    8.3405E+05 -6.5174E+03   8.4057E+05  0.000E+00  0.000E+00  0.000E+00  1.14618E+02  1.638E+00  5.000E+00  2.795E+03 -4.664E+00
   1   14   10     2     4    8.4057E+05 -7.7762E+03   8.4835E+05  0.000E+00  0.000E+00  0.000E+00  1.14167E+02  1.647E+00  5.000E+00  2.795E+03 -5.564E+00
   1   15   10     2     5    8.4835E+05 -1.4075E+04   8.6242E+05  0.000E+00  0.000E+00  0.000E+00  1.13540E+02  1.659E+00  5.000E+00  5.000E+03 -5.630E+00
   1   16   10     2     6    8.6242E+05 -1.1395E+04   8.7382E+05  0.000E+00  0.000E+00  0.000E+00  1.12734E+02  1.674E+00  5.000E+00  5.000E+03 -4.558E+00
   1   22   10     3     1    9.7300E+05 -1.5171E+04   9.8817E+05  0.000E+00  0.000E+00  0.000E+00  1.10682E+02  1.726E+00  5.000E+00  5.000E+03 -6.068E+00
   1   23   10     3     2    9.8817E+05 -1.6602E+04   1.0048E+06  0.000E+00  0.000E+00  0.000E+00  1.09871E+02  1.743E+00  5.000E+00  3.750E+03 -8.854E+00
   1   23   11     3     3    1.0048E+06 -1.1573E+04   1.0163E+06  0.000E+00  0.000E+00  0.000E+00  1.09294E+02  1.757E+00  5.000E+00  2.500E+03 -9.259E+00
   1   23   12     3     4    1.0163E+06 -2.5365E+04   1.0417E+06  0.000E+00  0.000E+00  0.000E+00  1.08604E+02  1.776E+00  5.000E+00  5.000E+03 -1.015E+01
   1   23   13     3     5    1.0417E+06 -2.7564E+04   1.0693E+06  0.000E+00  0.000E+00  0.000E+00  1.07686E+02  1.804E+00  5.000E+00  5.000E+03 -1.103E+01
   1   23   14     3     6    1.0693E+06 -3.0429E+04   1.0997E+06  0.000E+00  0.000E+00  0.000E+00  1.06769E+02  1.833E+00  5.000E+00  5.000E+03 -1.217E+01
   1   23   15     3     7    1.0997E+06 -3.9494E+04   1.1392E+06  0.000E+00  0.000E+00  0.000E+00  1.05859E+02  1.869E+00  5.000E+00  5.000E+03 -1.580E+01
   1   23   16     3     8    1.1392E+06 -7.7959E+04   1.2172E+06  0.000E+00  0.000E+00  0.000E+00  1.04971E+02  1.927E+00  5.000E+00  5.000E+03 -3.118E+01





     0  LAKE CELLS ARE DRY.

 PERIOD     1     TIME STEP    18     TIME STEP LENGTH  4.7698E+00
 PERIOD TIME  8.2321E+01     TOTAL SIMULATION TIME  8.2321E+01


                 HYDROLOGIC BUDGET SUMMARIES FOR SIMULATED LAKES
     (ALL FLUID FLUXES ARE VOLUMES ADDED TO THE LAKE DURING PRESENT TIME STEP)
     -------------------------------------------------------------------------
 LAKE    STAGE         VOLUME     VOL.CHANGE      PRECIP     EVAPORATION        RUNOFF
   1   116.4597     8.1622E+07    9.8336E+04    3.4581E+05    3.0706E+05    0.0000E+00
   2   111.1465     4.8415E+07    8.7924E+04    3.4581E+05    3.0706E+05    0.0000E+00

            GROUND WATER            SURFACE WATER        WATER
 LAKE    INFLOW     OUTFLOW      INFLOW     OUTFLOW       USE
   1  2.6277E+05  0.0000E+00  3.6757E+06  3.8789E+06  0.0000E+00
   2  5.2223E+05  0.0000E+00  4.1680E+06  4.6410E+06  0.0000E+00

      CONNECTED LAKE   TIME-STEP         STAGE-CHANGE          PERCENT
 LAKE    INFLUX      SURFACE AREA   TIME STEP  CUMULATIVE    DISCREPANCY
   1   0.0000E+00     6.2500E+06   1.5733E-02 -1.3540E+01       0.000
   2   0.0000E+00     6.2500E+06   1.4068E-02 -1.8854E+01       0.000
 --------------------------------------------------------------------------------



            CUMULATIVE HYDROLOGIC BUDGET SUMMARIES FOR SIMULATED LAKES
     (ALL FLUID FLUXES ARE SUMS OF VOLUMES ADDED TO THE LAKE SINCE INITIAL TIME)
     ---------------------------------------------------------------------------
 LAKE       PRECIP       EVAP       RUNOFF
   1     5.9683E+06  5.2994E+06  0.0000E+00
   2     5.9683E+06  5.2994E+06  0.0000E+00

            GROUND WATER            SURFACE WATER
 LAKE    INFLOW     OUTFLOW      INFLOW     OUTFLOW
   1  2.1504E+06  1.5644E+06  5.6598E+07  1.4248E+08
   2  6.5820E+06  1.4259E+06  1.4552E+08  2.6918E+08

         WATER    CONNECTED LAKE   CHANGE       PERCENT
 LAKE     USE         INFLUX       IN VOL.    DISCREPANCY
   1   0.0000E+00   0.0000E+00  -8.4626E+07      0.000
   2   0.0000E+00   0.0000E+00  -1.1783E+08      0.000
 --------------------------------------------------------------------------------

 
 SOLVING FOR HEAD 
     6 ITERATIONS FOR TIME STEP  19 IN STRESS PERIOD    1

 HEAD/DRAWDOWN PRINTOUT FLAG = 0     TOTAL BUDGET PRINTOUT FLAG = 0
 CELL-BY-CELL FLOW TERM FLAG = 1

 OUTPUT FLAGS FOR ALL LAYERS ARE THE SAME:
   HEAD    DRAWDOWN  HEAD  DRAWDOWN
 PRINTOUT  PRINTOUT  SAVE    SAVE
 ----------------------------------
     0         0       0       0



 STREAM LISTING     PERIOD      1   STEP       19

 LAYER ROW COL. STREAM  RCH.  FLOW INTO     FLOW TO   FLOW OUT OF   OVRLND.     DIRECT     STREAM       STREAM     STREAM     STREAM   STREAMBED  STREAMBED
                SEG.NO.  NO.  STRM. RCH.    AQUIFER    STRM. RCH.    RUNOFF     PRECIP       ET          HEAD       DEPTH      WIDTH   CONDCTNC.   GRADIENT

   1    2    5     1     1    6.9120E+05 -5.7047E+04   7.4825E+05  0.000E+00  0.000E+00  0.000E+00  1.25317E+02  1.369E+00  5.000E+00  5.000E+03 -2.282E+01
   1    3    5     1     2    7.4825E+05 -1.1835E+04   7.6008E+05  0.000E+00  0.000E+00  0.000E+00  1.24253E+02  1.408E+00  5.000E+00  5.000E+03 -4.734E+00
   1    4    5     1     3    7.6008E+05 -3.5551E+02   7.6044E+05  0.000E+00  0.000E+00  0.000E+00  1.23156E+02  1.415E+00  5.000E+00  5.000E+03 -1.422E-01
   1    4    6     1     4    7.6044E+05 -3.5384E+03   7.6398E+05  0.000E+00  0.000E+00  0.000E+00  1.22055E+02  1.417E+00  5.000E+00  5.000E+03 -1.415E+00
   1    4    7     1     5    7.6398E+05 -2.6357E+03   7.6661E+05  0.000E+00  0.000E+00  0.000E+00  1.21231E+02  1.420E+00  5.000E+00  2.500E+03 -2.109E+00
   1    4    8     1     6    7.6661E+05 -4.8854E+03   7.7150E+05  0.000E+00  0.000E+00  0.000E+00  1.20545E+02  1.424E+00  5.000E+00  3.750E+03 -2.606E+00
   1    5    8     1     7    7.7150E+05 -4.5578E+03   7.7606E+05  0.000E+00  0.000E+00  0.000E+00  1.19585E+02  1.430E+00  5.000E+00  5.000E+03 -1.823E+00
   1    6    8     1     8    7.7606E+05 -4.1530E+03   7.8021E+05  0.000E+00  0.000E+00  0.000E+00  1.18486E+02  1.434E+00  5.000E+00  5.000E+03 -1.661E+00
   1   12    9     2     1    8.2626E+05 -9.0183E+03   8.3528E+05  0.000E+00  0.000E+00  0.000E+00  1.16070E+02  1.630E+00  5.000E+00  5.000E+03 -3.607E+00
   1   13    9     2     2    8.3528E+05 -1.2422E+04   8.4770E+05  0.000E+00  0.000E+00  0.000E+00  1.15262E+02  1.643E+00  5.000E+00  5.000E+03 -4.969E+00
   1   14   10     2     3    8.4770E+05 -6.7146E+03   8.5442E+05  0.000E+00  0.000E+00  0.000E+00  1.14634E+02  1.654E+00  5.000E+00  2.795E+03 -4.805E+00
   1   14   10     2     4    8.5442E+05 -7.9729E+03   8.6239E+05  0.000E+00  0.000E+00  0.000E+00  1.14183E+02  1.663E+00  5.000E+00  2.795E+03 -5.705E+00
   1   15   10     2     5    8.6239E+05 -1.4342E+04   8.7673E+05  0.000E+00  0.000E+00  0.000E+00  1.13557E+02  1.676E+00  5.000E+00  5.000E+03 -5.737E+00
   1   16   10     2     6    8.7673E+05 -1.1451E+04   8.8818E+05  0.000E+00  0.000E+00  0.000E+00  1.12751E+02  1.691E+00  5.000E+00  5.000E+03 -4.580E+00
   1   22   10     3     1    9.8731E+05 -1.5075E+04   1.0024E+06  0.000E+00  0.000E+00  0.000E+00  1.10697E+02  1.741E+00  5.000E+00  5.000E+03 -6.030E+00
   1   23   10     3     2    1.0024E+06 -1.6714E+04   1.0191E+06  0.000E+00  0.000E+00  0.000E+00  1.09886E+02  1.757E+00  5.000E+00  3.750E+03 -8.914E+00
   1   23   11     3     3    1.0191E+06 -1.1586E+04   1.0307E+06  0.000E+00  0.000E+00  0.000E+00  1.09309E+02  1.772E+00  5.000E+00  2.500E+03 -9.268E+00
   1   23   12     3     4    1.0307E+06 -2.5367E+04   1.0561E+06  0.000E+00  0.000E+00  0.000E+00  1.08619E+02  1.791E+00  5.000E+00  5.000E+03 -1.015E+01
   1   23   13     3     5    1.0561E+06 -2.7604E+04   1.0837E+06  0.000E+00  0.000E+00  0.000E+00  1.07700E+02  1.818E+00  5.000E+00  5.000E+03 -1.104E+01
   1   23   14     3     6    1.0837E+06 -3.0562E+04   1.1142E+06  0.000E+00  0.000E+00  0.000E+00  1.06784E+02  1.848E+00  5.000E+00  5.000E+03 -1.222E+01
   1   23   15     3     7    1.1142E+06 -3.9936E+04   1.1542E+06  0.000E+00  0.000E+00  0.000E+00  1.05873E+02  1.883E+00  5.000E+00  5.000E+03 -1.597E+01
   1   23   16     3     8    1.1542E+06 -7.8617E+04   1.2328E+06  0.000E+00  0.000E+00  0.000E+00  1.04986E+02  1.942E+00  5.000E+00  5.000E+03 -3.145E+01





     0  LAKE CELLS ARE DRY.

 PERIOD     1     TIME STEP    19     TIME STEP LENGTH  4.7937E+00
 PERIOD TIME  8.7114E+01     TOTAL SIMULATION TIME  8.7114E+01


                 HYDROLOGIC BUDGET SUMMARIES FOR SIMULATED LAKES
     (ALL FLUID FLUXES ARE VOLUMES ADDED TO THE LAKE DURING PRESENT TIME STEP)
     -------------------------------------------------------------------------
 LAKE    STAGE         VOLUME     VOL.CHANGE      PRECIP     EVAPORATION        RUNOFF
   1   116.4751     8.1718E+07    9.6184E+04    3.4754E+05    3.0859E+05    0.0000E+00
   2   111.1616     4.8509E+07    9.4524E+04    3.4754E+05    3.0859E+05    0.0000E+00

            GROUND WATER            SURFACE WATER        WATER
 LAKE    INFLOW     OUTFLOW      INFLOW     OUTFLOW       USE
   1  2.7801E+05  0.0000E+00  3.7401E+06  3.9608E+06  0.0000E+00
   2  5.3075E+05  0.0000E+00  4.2577E+06  4.7328E+06  0.0000E+00

      CONNECTED LAKE   TIME-STEP         STAGE-CHANGE          PERCENT
 LAKE    INFLUX      SURFACE AREA   TIME STEP  CUMULATIVE    DISCREPANCY
   1   0.0000E+00     6.2500E+06   1.5389E-02 -1.3525E+01       0.000
   2   0.0000E+00     6.2500E+06   1.5124E-02 -1.8838E+01       0.000
 --------------------------------------------------------------------------------



            CUMULATIVE HYDROLOGIC BUDGET SUMMARIES FOR SIMULATED LAKES
     (ALL FLUID FLUXES ARE SUMS OF VOLUMES ADDED TO THE LAKE SINCE INITIAL TIME)
     ---------------------------------------------------------------------------
 LAKE       PRECIP       EVAP       RUNOFF
   1     6.3158E+06  5.6080E+06  0.0000E+00
   2     6.3158E+06  5.6080E+06  0.0000E+00

            GROUND WATER            SURFACE WATER
 LAKE    INFLOW     OUTFLOW      INFLOW     OUTFLOW
   1  2.4284E+06  1.5644E+06  6.0338E+07  1.4644E+08
   2  7.1127E+06  1.4259E+06  1.4978E+08  2.7391E+08

         WATER    CONNECTED LAKE   CHANGE       PERCENT
 LAKE     USE         INFLUX       IN VOL.    DISCREPANCY
   1   0.0000E+00   0.0000E+00  -8.4530E+07      0.000
   2   0.0000E+00   0.0000E+00  -1.1774E+08      0.000
 --------------------------------------------------------------------------------

 
 SOLVING FOR HEAD 
     6 ITERATIONS FOR TIME STEP  20 IN STRESS PERIOD    1

 HEAD/DRAWDOWN PRINTOUT FLAG = 1     TOTAL BUDGET PRINTOUT FLAG = 1
 CELL-BY-CELL FLOW TERM FLAG = 1

 OUTPUT FLAGS FOR EACH LAYER:
          HEAD    DRAWDOWN  HEAD  DRAWDOWN
 LAYER  PRINTOUT  PRINTOUT  SAVE    SAVE
 -----------------------------------------
    1       0         0       0       0
    2       0         0       0       0
    3       0         0       0       0
    4       0         0       0       0
    5       1         0       0       0



 STREAM LISTING     PERIOD      1   STEP       20

 LAYER ROW COL. STREAM  RCH.  FLOW INTO     FLOW TO   FLOW OUT OF   OVRLND.     DIRECT     STREAM       STREAM     STREAM     STREAM   STREAMBED  STREAMBED
                SEG.NO.  NO.  STRM. RCH.    AQUIFER    STRM. RCH.    RUNOFF     PRECIP       ET          HEAD       DEPTH      WIDTH   CONDCTNC.   GRADIENT

   1    2    5     1     1    6.9120E+05 -5.8703E+04   7.4990E+05  0.000E+00  0.000E+00  0.000E+00  1.25318E+02  1.370E+00  5.000E+00  5.000E+03 -2.348E+01
   1    3    5     1     2    7.4990E+05 -1.3871E+04   7.6377E+05  0.000E+00  0.000E+00  0.000E+00  1.24256E+02  1.411E+00  5.000E+00  5.000E+03 -5.549E+00
   1    4    5     1     3    7.6377E+05 -1.9009E+03   7.6568E+05  0.000E+00  0.000E+00  0.000E+00  1.23161E+02  1.420E+00  5.000E+00  5.000E+03 -7.604E-01
   1    4    6     1     4    7.6568E+05 -4.8834E+03   7.7056E+05  0.000E+00  0.000E+00  0.000E+00  1.22061E+02  1.423E+00  5.000E+00  5.000E+03 -1.953E+00
   1    4    7     1     5    7.7056E+05 -3.2385E+03   7.7380E+05  0.000E+00  0.000E+00  0.000E+00  1.21238E+02  1.428E+00  5.000E+00  2.500E+03 -2.591E+00
   1    4    8     1     6    7.7380E+05 -5.7557E+03   7.7955E+05  0.000E+00  0.000E+00  0.000E+00  1.20554E+02  1.433E+00  5.000E+00  3.750E+03 -3.070E+00
   1    5    8     1     7    7.7955E+05 -5.2432E+03   7.8480E+05  0.000E+00  0.000E+00  0.000E+00  1.19594E+02  1.439E+00  5.000E+00  5.000E+03 -2.097E+00
   1    6    8     1     8    7.8480E+05 -4.5342E+03   7.8933E+05  0.000E+00  0.000E+00  0.000E+00  1.18496E+02  1.444E+00  5.000E+00  5.000E+03 -1.814E+00
   1   12    9     2     1    8.3894E+05 -9.2489E+03   8.4819E+05  0.000E+00  0.000E+00  0.000E+00  1.16085E+02  1.645E+00  5.000E+00  5.000E+03 -3.700E+00
   1   13    9     2     2    8.4819E+05 -1.2803E+04   8.6100E+05  0.000E+00  0.000E+00  0.000E+00  1.15277E+02  1.658E+00  5.000E+00  5.000E+03 -5.121E+00
   1   14   10     2     3    8.6100E+05 -6.9134E+03   8.6791E+05  0.000E+00  0.000E+00  0.000E+00  1.14649E+02  1.670E+00  5.000E+00  2.795E+03 -4.947E+00
   1   14   10     2     4    8.6791E+05 -8.1712E+03   8.7608E+05  0.000E+00  0.000E+00  0.000E+00  1.14199E+02  1.679E+00  5.000E+00  2.795E+03 -5.847E+00
   1   15   10     2     5    8.7608E+05 -1.4614E+04   8.9069E+05  0.000E+00  0.000E+00  0.000E+00  1.13573E+02  1.692E+00  5.000E+00  5.000E+03 -5.846E+00
   1   16   10     2     6    8.9069E+05 -1.1527E+04   9.0222E+05  0.000E+00  0.000E+00  0.000E+00  1.12767E+02  1.707E+00  5.000E+00  5.000E+03 -4.611E+00
   1   22   10     3     1    1.0021E+06 -1.5011E+04   1.0171E+06  0.000E+00  0.000E+00  0.000E+00  1.10712E+02  1.756E+00  5.000E+00  5.000E+03 -6.004E+00
   1   23   10     3     2    1.0171E+06 -1.6854E+04   1.0340E+06  0.000E+00  0.000E+00  0.000E+00  1.09901E+02  1.773E+00  5.000E+00  3.750E+03 -8.989E+00
   1   23   11     3     3    1.0340E+06 -1.1622E+04   1.0456E+06  0.000E+00  0.000E+00  0.000E+00  1.09325E+02  1.788E+00  5.000E+00  2.500E+03 -9.298E+00
   1   23   12     3     4    1.0456E+06 -2.5417E+04   1.0710E+06  0.000E+00  0.000E+00  0.000E+00  1.08634E+02  1.807E+00  5.000E+00  5.000E+03 -1.017E+01
   1   23   13     3     5    1.0710E+06 -2.7697E+04   1.0987E+06  0.000E+00  0.000E+00  0.000E+00  1.07715E+02  1.834E+00  5.000E+00  5.000E+03 -1.108E+01
   1   23   14     3     6    1.0987E+06 -3.0754E+04   1.1295E+06  0.000E+00  0.000E+00  0.000E+00  1.06799E+02  1.863E+00  5.000E+00  5.000E+03 -1.230E+01
   1   23   15     3     7    1.1295E+06 -4.0417E+04   1.1699E+06  0.000E+00  0.000E+00  0.000E+00  1.05889E+02  1.899E+00  5.000E+00  5.000E+03 -1.617E+01
   1   23   16     3     8    1.1699E+06 -7.9239E+04   1.2491E+06  0.000E+00  0.000E+00  0.000E+00  1.05002E+02  1.957E+00  5.000E+00  5.000E+03 -3.170E+01





     0  LAKE CELLS ARE DRY.

 PERIOD     1     TIME STEP    20     TIME STEP LENGTH  4.8177E+00
 PERIOD TIME  9.1932E+01     TOTAL SIMULATION TIME  9.1932E+01


                 HYDROLOGIC BUDGET SUMMARIES FOR SIMULATED LAKES
     (ALL FLUID FLUXES ARE VOLUMES ADDED TO THE LAKE DURING PRESENT TIME STEP)
     -------------------------------------------------------------------------
 LAKE    STAGE         VOLUME     VOL.CHANGE      PRECIP     EVAPORATION        RUNOFF
   1   116.4900     8.1812E+07    9.3544E+04    3.4928E+05    3.1014E+05    0.0000E+00
   2   111.1772     4.8607E+07    9.7664E+04    3.4928E+05    3.1014E+05    0.0000E+00

            GROUND WATER            SURFACE WATER        WATER
 LAKE    INFLOW     OUTFLOW      INFLOW     OUTFLOW       USE
   1  2.9341E+05  0.0000E+00  3.8027E+06  4.0417E+06  0.0000E+00
   2  5.3971E+05  0.0000E+00  4.3466E+06  4.8278E+06  0.0000E+00

      CONNECTED LAKE   TIME-STEP         STAGE-CHANGE          PERCENT
 LAKE    INFLUX      SURFACE AREA   TIME STEP  CUMULATIVE    DISCREPANCY
   1   0.0000E+00     6.2500E+06   1.4966E-02 -1.3510E+01       0.000
   2   0.0000E+00     6.2500E+06   1.5627E-02 -1.8823E+01       0.000
 --------------------------------------------------------------------------------



            CUMULATIVE HYDROLOGIC BUDGET SUMMARIES FOR SIMULATED LAKES
     (ALL FLUID FLUXES ARE SUMS OF VOLUMES ADDED TO THE LAKE SINCE INITIAL TIME)
     ---------------------------------------------------------------------------
 LAKE       PRECIP       EVAP       RUNOFF
   1     6.6651E+06  5.9181E+06  0.0000E+00
   2     6.6651E+06  5.9181E+06  0.0000E+00

            GROUND WATER            SURFACE WATER
 LAKE    INFLOW     OUTFLOW      INFLOW     OUTFLOW
   1  2.7218E+06  1.5644E+06  6.4141E+07  1.5048E+08
   2  7.6524E+06  1.4259E+06  1.5412E+08  2.7874E+08

         WATER    CONNECTED LAKE   CHANGE       PERCENT
 LAKE     USE         INFLUX       IN VOL.    DISCREPANCY
   1   0.0000E+00   0.0000E+00  -8.4437E+07      0.000
   2   0.0000E+00   0.0000E+00  -1.1764E+08      0.000
 --------------------------------------------------------------------------------

1
              HEAD IN LAYER   5 AT END OF TIME STEP  20 IN STRESS PERIOD    1
  ---------------------------------------------------------------------------

          1      2      3      4      5      6      7      8      9     10
 .........................................................................
   1   160.0  158.9  157.3  155.8  154.2  152.7  151.5  150.8  150.0  149.2
   2   160.0  154.2  147.4  143.3  137.1  140.3  140.1  139.7  139.1  138.6
   3   160.0  149.1  135.8  129.8  127.0  127.6  127.3  127.1  126.8  126.5
   4   160.0  147.0  130.8  124.5  123.5  123.0  122.5  122.1  122.2  122.0
   5   160.0  146.3  129.4  122.8  121.5  121.3  121.1  120.6  120.9  120.8
   6   160.0  146.2  129.1  122.4  120.9  120.5  119.9  119.4  119.7  119.8
   7   160.0  146.2  129.1  122.3  120.7  119.8  116.7  116.6  116.6  116.6
   8   160.0  146.2  129.1  122.3  120.7  119.7  116.6  116.5  116.5  116.5
   9   160.0  146.2  129.1  122.3  120.7  119.7  116.6  116.5  116.5  116.5
  10   160.0  146.2  129.1  122.3  120.6  119.7  116.6  116.5  116.5  116.5
  11   160.0  146.2  129.1  122.3  120.7  119.8  116.7  116.6  116.5  116.6
  12   160.0  146.2  129.1  122.3  120.7  120.3  119.5  119.0  117.9  118.9
  13   160.0  146.2  129.1  122.3  120.7  120.3  119.9  119.3  117.8  119.0
  14   160.0  146.2  129.1  122.3  120.7  120.3  120.0  119.6  118.7  117.1
  15   160.0  146.2  129.1  122.3  120.6  120.2  119.7  119.2  118.3  116.5
  16   160.0  146.2  129.1  122.3  120.5  119.5  117.9  117.2  116.4  115.1
  17   160.0  146.2  129.1  122.2  120.3  118.1  111.6  111.4  111.3  111.3
  18   160.0  146.2  129.1  122.2  120.2  117.7  111.4  111.2  111.2  111.2
  19   160.0  146.2  129.1  122.2  120.2  117.6  111.4  111.2  111.2  111.2
  20   160.0  146.2  129.1  122.2  120.2  117.7  111.4  111.2  111.2  111.2
  21   160.0  146.2  129.1  122.3  120.3  118.1  111.6  111.4  111.3  111.3
  22   160.0  146.2  129.1  122.3  120.5  119.5  117.8  116.9  115.8  113.7
  23   160.0  146.3  129.4  122.6  120.9  120.4  119.8  119.1  117.6  114.4
  24   160.0  147.0  130.7  124.1  122.3  121.9  121.6  121.4  121.0  120.5
  25   160.0  149.1  135.8  129.8  127.9  127.3  126.9  126.7  126.4  126.2
  26   160.0  154.2  147.5  144.1  142.3  141.0  140.2  139.6  139.1  138.5
  27   160.0  158.9  157.3  155.8  154.2  152.7  151.5  150.8  150.0  149.2
1
              HEAD IN LAYER   5 AT END OF TIME STEP  20 IN STRESS PERIOD    1
  ---------------------------------------------------------------------------

         11     12     13     14     15     16     17
 ....................................................
   1   148.5  147.3  145.8  144.2  142.7  141.1  140.0
   2   138.0  137.2  136.2  135.4  135.5  137.4  140.0
   3   126.3  126.0  125.7  126.0  128.1  133.9  140.0
   4   121.8  121.7  121.7  122.3  125.2  132.7  140.0
   5   120.7  120.6  120.7  121.4  124.4  132.3  140.0
   6   119.8  120.3  120.5  121.3  124.3  132.3  140.0
   7   116.7  119.8  120.5  121.2  124.3  132.3  140.0
   8   116.6  119.7  120.5  121.2  124.3  132.3  140.0
   9   116.6  119.6  120.5  121.2  124.3  132.3  140.0
  10   116.6  119.6  120.5  121.2  124.3  132.3  140.0
  11   116.7  119.7  120.5  121.2  124.3  132.3  140.0
  12   119.5  120.2  120.5  121.2  124.3  132.3  140.0
  13   119.7  120.2  120.5  121.2  124.3  132.3  140.0
  14   118.9  120.0  120.4  121.2  124.3  132.3  140.0
  15   118.3  119.8  120.4  121.2  124.3  132.3  140.0
  16   116.8  119.2  120.3  121.2  124.3  132.3  140.0
  17   111.5  118.0  120.1  121.2  124.3  132.2  140.0
  18   111.4  117.6  120.0  121.1  124.2  132.2  140.0
  19   111.4  117.5  119.9  121.1  124.1  132.2  140.0
  20   111.4  117.5  119.8  120.9  123.9  132.0  140.0
  21   111.5  117.5  119.5  120.5  123.5  131.6  140.0
  22   115.5  117.7  118.6  119.2  121.9  130.1  140.0
  23   114.0  113.7  113.3  113.0  114.0  120.9  140.0
  24   120.2  120.0  119.9  120.3  122.7  130.5  140.0
  25   125.9  125.6  125.4  125.6  127.6  133.6  140.0
  26   138.0  137.2  136.2  135.4  135.4  137.4  140.0
  27   148.5  147.3  145.8  144.2  142.7  141.1  140.0
1
  VOLUMETRIC BUDGET FOR ENTIRE MODEL AT END OF TIME STEP 20 IN STRESS PERIOD   1
  ------------------------------------------------------------------------------

     CUMULATIVE VOLUMES      L**3       RATES FOR THIS TIME STEP      L**3/T
     ------------------                 ------------------------

           IN:                                      IN:
           ---                                      ---
             STORAGE =     2934567.7500               STORAGE =           0.0000
       CONSTANT HEAD =   343689376.0000         CONSTANT HEAD =     2346320.7500
                  ET =           0.0000                    ET =           0.0000
            RECHARGE =   253273056.0000              RECHARGE =     2755000.0000
     SPECIFIED FLOWS =           0.0000       SPECIFIED FLOWS =           0.0000
      STREAM LEAKAGE =     3694574.2500        STREAM LEAKAGE =           0.0000
       LAKE  SEEPAGE =     2990331.7500         LAKE  SEEPAGE =           0.0000

            TOTAL IN =   606581888.0000              TOTAL IN =     5101321.0000

          OUT:                                     OUT:
          ----                                     ----
             STORAGE =   561157568.0000               STORAGE =     4247483.0000
       CONSTANT HEAD =           0.0000         CONSTANT HEAD =           0.0000
                  ET =     7386792.0000                    ET =      272492.9375
            RECHARGE =           0.0000              RECHARGE =           0.0000
     SPECIFIED FLOWS =           0.0000       SPECIFIED FLOWS =           0.0000
      STREAM LEAKAGE =    27662770.0000        STREAM LEAKAGE =      408419.4688
       LAKE  SEEPAGE =    10374292.0000         LAKE  SEEPAGE =      172931.1719

           TOTAL OUT =   606581440.0000             TOTAL OUT =     5101326.5000

            IN - OUT =         448.0000              IN - OUT =          -5.5000

 PERCENT DISCREPANCY =           0.00     PERCENT DISCREPANCY =           0.00






          TIME SUMMARY AT END OF TIME STEP  20 IN STRESS PERIOD    1
                    SECONDS     MINUTES      HOURS       DAYS        YEARS
                    -----------------------------------------------------------
   TIME STEP LENGTH 4.16245E+05  6937.4      115.62      4.8177     1.31900E-02
 STRESS PERIOD TIME 7.94294E+06 1.32382E+05  2206.4      91.932     0.25170    
         TOTAL TIME 7.94294E+06 1.32382E+05  2206.4      91.932     0.25170    
1
 
 SOLVING FOR HEAD 
     6 ITERATIONS FOR TIME STEP  21 IN STRESS PERIOD    1

 HEAD/DRAWDOWN PRINTOUT FLAG = 0     TOTAL BUDGET PRINTOUT FLAG = 0
 CELL-BY-CELL FLOW TERM FLAG = 1

 OUTPUT FLAGS FOR ALL LAYERS ARE THE SAME:
   HEAD    DRAWDOWN  HEAD  DRAWDOWN
 PRINTOUT  PRINTOUT  SAVE    SAVE
 ----------------------------------
     0         0       0       0



 STREAM LISTING     PERIOD      1   STEP       21

 LAYER ROW COL. STREAM  RCH.  FLOW INTO     FLOW TO   FLOW OUT OF   OVRLND.     DIRECT     STREAM       STREAM     STREAM     STREAM   STREAMBED  STREAMBED
                SEG.NO.  NO.  STRM. RCH.    AQUIFER    STRM. RCH.    RUNOFF     PRECIP       ET          HEAD       DEPTH      WIDTH   CONDCTNC.   GRADIENT

   1    2    5     1     1    6.9120E+05 -6.0211E+04   7.5141E+05  0.000E+00  0.000E+00  0.000E+00  1.25319E+02  1.371E+00  5.000E+00  5.000E+03 -2.408E+01
   1    3    5     1     2    7.5141E+05 -1.5813E+04   7.6722E+05  0.000E+00  0.000E+00  0.000E+00  1.24258E+02  1.414E+00  5.000E+00  5.000E+03 -6.325E+00
   1    4    5     1     3    7.6722E+05 -3.3862E+03   7.7061E+05  0.000E+00  0.000E+00  0.000E+00  1.23166E+02  1.424E+00  5.000E+00  5.000E+03 -1.354E+00
   1    4    6     1     4    7.7061E+05 -6.1726E+03   7.7678E+05  0.000E+00  0.000E+00  0.000E+00  1.22067E+02  1.430E+00  5.000E+00  5.000E+03 -2.469E+00
   1    4    7     1     5    7.7678E+05 -3.8229E+03   7.8061E+05  0.000E+00  0.000E+00  0.000E+00  1.21245E+02  1.435E+00  5.000E+00  2.500E+03 -3.058E+00
   1    4    8     1     6    7.8061E+05 -6.6120E+03   7.8722E+05  0.000E+00  0.000E+00  0.000E+00  1.20562E+02  1.441E+00  5.000E+00  3.750E+03 -3.526E+00
   1    5    8     1     7    7.8722E+05 -5.9151E+03   7.9313E+05  0.000E+00  0.000E+00  0.000E+00  1.19603E+02  1.448E+00  5.000E+00  5.000E+03 -2.366E+00
   1    6    8     1     8    7.9313E+05 -4.9082E+03   7.9804E+05  0.000E+00  0.000E+00  0.000E+00  1.18505E+02  1.454E+00  5.000E+00  5.000E+03 -1.963E+00
   1   12    9     2     1    8.5129E+05 -9.4804E+03   8.6077E+05  0.000E+00  0.000E+00  0.000E+00  1.16100E+02  1.660E+00  5.000E+00  5.000E+03 -3.792E+00
   1   13    9     2     2    8.6077E+05 -1.3182E+04   8.7395E+05  0.000E+00  0.000E+00  0.000E+00  1.15292E+02  1.673E+00  5.000E+00  5.000E+03 -5.273E+00
   1   14   10     2     3    8.7395E+05 -7.1130E+03   8.8107E+05  0.000E+00  0.000E+00  0.000E+00  1.14664E+02  1.685E+00  5.000E+00  2.795E+03 -5.090E+00
   1   14   10     2     4    8.8107E+05 -8.3703E+03   8.8944E+05  0.000E+00  0.000E+00  0.000E+00  1.14214E+02  1.694E+00  5.000E+00  2.795E+03 -5.989E+00
   1   15   10     2     5    8.8944E+05 -1.4892E+04   9.0433E+05  0.000E+00  0.000E+00  0.000E+00  1.13588E+02  1.707E+00  5.000E+00  5.000E+03 -5.957E+00
   1   16   10     2     6    9.0433E+05 -1.1620E+04   9.1595E+05  0.000E+00  0.000E+00  0.000E+00  1.12783E+02  1.722E+00  5.000E+00  5.000E+03 -4.648E+00
   1   22   10     3     1    1.0172E+06 -1.4973E+04   1.0322E+06  0.000E+00  0.000E+00  0.000E+00  1.10728E+02  1.772E+00  5.000E+00  5.000E+03 -5.989E+00
   1   23   10     3     2    1.0322E+06 -1.7021E+04   1.0492E+06  0.000E+00  0.000E+00  0.000E+00  1.09917E+02  1.789E+00  5.000E+00  3.750E+03 -9.078E+00
   1   23   11     3     3    1.0492E+06 -1.1680E+04   1.0609E+06  0.000E+00  0.000E+00  0.000E+00  1.09340E+02  1.803E+00  5.000E+00  2.500E+03 -9.344E+00
   1   23   12     3     4    1.0609E+06 -2.5509E+04   1.0864E+06  0.000E+00  0.000E+00  0.000E+00  1.08650E+02  1.822E+00  5.000E+00  5.000E+03 -1.020E+01
   1   23   13     3     5    1.0864E+06 -2.7836E+04   1.1142E+06  0.000E+00  0.000E+00  0.000E+00  1.07731E+02  1.849E+00  5.000E+00  5.000E+03 -1.113E+01
   1   23   14     3     6    1.1142E+06 -3.0998E+04   1.1452E+06  0.000E+00  0.000E+00  0.000E+00  1.06815E+02  1.879E+00  5.000E+00  5.000E+03 -1.240E+01
   1   23   15     3     7    1.1452E+06 -4.0930E+04   1.1862E+06  0.000E+00  0.000E+00  0.000E+00  1.05905E+02  1.915E+00  5.000E+00  5.000E+03 -1.637E+01
   1   23   16     3     8    1.1862E+06 -7.9825E+04   1.2660E+06  0.000E+00  0.000E+00  0.000E+00  1.05018E+02  1.973E+00  5.000E+00  5.000E+03 -3.193E+01





     0  LAKE CELLS ARE DRY.

 PERIOD     1     TIME STEP    21     TIME STEP LENGTH  4.8417E+00
 PERIOD TIME  9.6774E+01     TOTAL SIMULATION TIME  9.6774E+01


                 HYDROLOGIC BUDGET SUMMARIES FOR SIMULATED LAKES
     (ALL FLUID FLUXES ARE VOLUMES ADDED TO THE LAKE DURING PRESENT TIME STEP)
     -------------------------------------------------------------------------
 LAKE    STAGE         VOLUME     VOL.CHANGE      PRECIP     EVAPORATION        RUNOFF
   1   116.5045     8.1902E+07    9.0504E+04    3.5103E+05    3.1169E+05    0.0000E+00
   2   111.1929     4.8705E+07    9.8116E+04    3.5103E+05    3.1169E+05    0.0000E+00

            GROUND WATER            SURFACE WATER        WATER
 LAKE    INFLOW     OUTFLOW      INFLOW     OUTFLOW       USE
   1  3.0899E+05  0.0000E+00  3.8639E+06  4.1217E+06  0.0000E+00
   2  5.4912E+05  0.0000E+00  4.4348E+06  4.9251E+06  0.0000E+00

      CONNECTED LAKE   TIME-STEP         STAGE-CHANGE          PERCENT
 LAKE    INFLUX      SURFACE AREA   TIME STEP  CUMULATIVE    DISCREPANCY
   1   0.0000E+00     6.2500E+06   1.4481E-02 -1.3495E+01       0.000
   2   0.0000E+00     6.2500E+06   1.5699E-02 -1.8807E+01       0.000
 --------------------------------------------------------------------------------



            CUMULATIVE HYDROLOGIC BUDGET SUMMARIES FOR SIMULATED LAKES
     (ALL FLUID FLUXES ARE SUMS OF VOLUMES ADDED TO THE LAKE SINCE INITIAL TIME)
     ---------------------------------------------------------------------------
 LAKE       PRECIP       EVAP       RUNOFF
   1     7.0161E+06  6.2298E+06  0.0000E+00
   2     7.0161E+06  6.2298E+06  0.0000E+00

            GROUND WATER            SURFACE WATER
 LAKE    INFLOW     OUTFLOW      INFLOW     OUTFLOW
   1  3.0308E+06  1.5644E+06  6.8004E+07  1.5460E+08
   2  8.2016E+06  1.4259E+06  1.5856E+08  2.8366E+08

         WATER    CONNECTED LAKE   CHANGE       PERCENT
 LAKE     USE         INFLUX       IN VOL.    DISCREPANCY
   1   0.0000E+00   0.0000E+00  -8.4346E+07      0.000
   2   0.0000E+00   0.0000E+00  -1.1754E+08      0.000
 --------------------------------------------------------------------------------

 
 SOLVING FOR HEAD 
     6 ITERATIONS FOR TIME STEP  22 IN STRESS PERIOD    1

 HEAD/DRAWDOWN PRINTOUT FLAG = 0     TOTAL BUDGET PRINTOUT FLAG = 0
 CELL-BY-CELL FLOW TERM FLAG = 1

 OUTPUT FLAGS FOR ALL LAYERS ARE THE SAME:
   HEAD    DRAWDOWN  HEAD  DRAWDOWN
 PRINTOUT  PRINTOUT  SAVE    SAVE
 ----------------------------------
     0         0       0       0



 STREAM LISTING     PERIOD      1   STEP       22

 LAYER ROW COL. STREAM  RCH.  FLOW INTO     FLOW TO   FLOW OUT OF   OVRLND.     DIRECT     STREAM       STREAM     STREAM     STREAM   STREAMBED  STREAMBED
                SEG.NO.  NO.  STRM. RCH.    AQUIFER    STRM. RCH.    RUNOFF     PRECIP       ET          HEAD       DEPTH      WIDTH   CONDCTNC.   GRADIENT

   1    2    5     1     1    6.9120E+05 -6.1586E+04   7.5279E+05  0.000E+00  0.000E+00  0.000E+00  1.25320E+02  1.371E+00  5.000E+00  5.000E+03 -2.463E+01
   1    3    5     1     2    7.5279E+05 -1.7667E+04   7.7045E+05  0.000E+00  0.000E+00  0.000E+00  1.24261E+02  1.416E+00  5.000E+00  5.000E+03 -7.067E+00
   1    4    5     1     3    7.7045E+05 -4.8223E+03   7.7527E+05  0.000E+00  0.000E+00  0.000E+00  1.23170E+02  1.429E+00  5.000E+00  5.000E+03 -1.929E+00
   1    4    6     1     4    7.7527E+05 -7.4113E+03   7.8269E+05  0.000E+00  0.000E+00  0.000E+00  1.22073E+02  1.435E+00  5.000E+00  5.000E+03 -2.965E+00
   1    4    7     1     5    7.8269E+05 -4.3903E+03   7.8708E+05  0.000E+00  0.000E+00  0.000E+00  1.21252E+02  1.442E+00  5.000E+00  2.500E+03 -3.512E+00
   1    4    8     1     6    7.8708E+05 -7.4547E+03   7.9453E+05  0.000E+00  0.000E+00  0.000E+00  1.20569E+02  1.448E+00  5.000E+00  3.750E+03 -3.976E+00
   1    5    8     1     7    7.9453E+05 -6.5749E+03   8.0111E+05  0.000E+00  0.000E+00  0.000E+00  1.19611E+02  1.456E+00  5.000E+00  5.000E+03 -2.630E+00
   1    6    8     1     8    8.0111E+05 -5.2756E+03   8.0638E+05  0.000E+00  0.000E+00  0.000E+00  1.18514E+02  1.463E+00  5.000E+00  5.000E+03 -2.110E+00
   1   12    9     2     1    8.6334E+05 -9.7118E+03   8.7305E+05  0.000E+00  0.000E+00  0.000E+00  1.16114E+02  1.674E+00  5.000E+00  5.000E+03 -3.885E+00
   1   13    9     2     2    8.7305E+05 -1.3559E+04   8.8661E+05  0.000E+00  0.000E+00  0.000E+00  1.15307E+02  1.688E+00  5.000E+00  5.000E+03 -5.424E+00
   1   14   10     2     3    8.8661E+05 -7.3129E+03   8.9392E+05  0.000E+00  0.000E+00  0.000E+00  1.14679E+02  1.700E+00  5.000E+00  2.795E+03 -5.233E+00
   1   14   10     2     4    8.9392E+05 -8.5697E+03   9.0249E+05  0.000E+00  0.000E+00  0.000E+00  1.14229E+02  1.709E+00  5.000E+00  2.795E+03 -6.132E+00
   1   15   10     2     5    9.0249E+05 -1.5173E+04   9.1767E+05  0.000E+00  0.000E+00  0.000E+00  1.13603E+02  1.722E+00  5.000E+00  5.000E+03 -6.069E+00
   1   16   10     2     6    9.1767E+05 -1.1725E+04   9.2939E+05  0.000E+00  0.000E+00  0.000E+00  1.12798E+02  1.737E+00  5.000E+00  5.000E+03 -4.690E+00
   1   22   10     3     1    1.0323E+06 -1.4958E+04   1.0473E+06  0.000E+00  0.000E+00  0.000E+00  1.10743E+02  1.788E+00  5.000E+00  5.000E+03 -5.983E+00
   1   23   10     3     2    1.0473E+06 -1.7211E+04   1.0645E+06  0.000E+00  0.000E+00  0.000E+00  1.09932E+02  1.804E+00  5.000E+00  3.750E+03 -9.179E+00
   1   23   11     3     3    1.0645E+06 -1.1757E+04   1.0762E+06  0.000E+00  0.000E+00  0.000E+00  1.09356E+02  1.819E+00  5.000E+00  2.500E+03 -9.406E+00
   1   23   12     3     4    1.0762E+06 -2.5640E+04   1.1019E+06  0.000E+00  0.000E+00  0.000E+00  1.08666E+02  1.838E+00  5.000E+00  5.000E+03 -1.026E+01
   1   23   13     3     5    1.1019E+06 -2.8018E+04   1.1299E+06  0.000E+00  0.000E+00  0.000E+00  1.07747E+02  1.865E+00  5.000E+00  5.000E+03 -1.121E+01
   1   23   14     3     6    1.1299E+06 -3.1288E+04   1.1612E+06  0.000E+00  0.000E+00  0.000E+00  1.06831E+02  1.895E+00  5.000E+00  5.000E+03 -1.252E+01
   1   23   15     3     7    1.1612E+06 -4.1469E+04   1.2026E+06  0.000E+00  0.000E+00  0.000E+00  1.05921E+02  1.930E+00  5.000E+00  5.000E+03 -1.659E+01
   1   23   16     3     8    1.2026E+06 -8.0378E+04   1.2830E+06  0.000E+00  0.000E+00  0.000E+00  1.05034E+02  1.990E+00  5.000E+00  5.000E+03 -3.215E+01





     0  LAKE CELLS ARE DRY.

 PERIOD     1     TIME STEP    22     TIME STEP LENGTH  4.8659E+00
 PERIOD TIME  1.0164E+02     TOTAL SIMULATION TIME  1.0164E+02


                 HYDROLOGIC BUDGET SUMMARIES FOR SIMULATED LAKES
     (ALL FLUID FLUXES ARE VOLUMES ADDED TO THE LAKE DURING PRESENT TIME STEP)
     -------------------------------------------------------------------------
 LAKE    STAGE         VOLUME     VOL.CHANGE      PRECIP     EVAPORATION        RUNOFF
   1   116.5185     8.1990E+07    8.7104E+04    3.5278E+05    3.1325E+05    0.0000E+00
   2   111.2086     4.8803E+07    9.7724E+04    3.5278E+05    3.1325E+05    0.0000E+00

            GROUND WATER            SURFACE WATER        WATER
 LAKE    INFLOW     OUTFLOW      INFLOW     OUTFLOW       USE
   1  3.2472E+05  0.0000E+00  3.9238E+06  4.2010E+06  0.0000E+00
   2  5.5897E+05  0.0000E+00  4.5224E+06  5.0231E+06  0.0000E+00

      CONNECTED LAKE   TIME-STEP         STAGE-CHANGE          PERCENT
 LAKE    INFLUX      SURFACE AREA   TIME STEP  CUMULATIVE    DISCREPANCY
   1   0.0000E+00     6.2500E+06   1.3936E-02 -1.3482E+01       0.000
   2   0.0000E+00     6.2500E+06   1.5636E-02 -1.8791E+01       0.000
 --------------------------------------------------------------------------------



            CUMULATIVE HYDROLOGIC BUDGET SUMMARIES FOR SIMULATED LAKES
     (ALL FLUID FLUXES ARE SUMS OF VOLUMES ADDED TO THE LAKE SINCE INITIAL TIME)
     ---------------------------------------------------------------------------
 LAKE       PRECIP       EVAP       RUNOFF
   1     7.3689E+06  6.5431E+06  0.0000E+00
   2     7.3689E+06  6.5431E+06  0.0000E+00

            GROUND WATER            SURFACE WATER
 LAKE    INFLOW     OUTFLOW      INFLOW     OUTFLOW
   1  3.3556E+06  1.5644E+06  7.1928E+07  1.5880E+08
   2  8.7605E+06  1.4259E+06  1.6308E+08  2.8869E+08

         WATER    CONNECTED LAKE   CHANGE       PERCENT
 LAKE     USE         INFLUX       IN VOL.    DISCREPANCY
   1   0.0000E+00   0.0000E+00  -8.4259E+07      0.000
   2   0.0000E+00   0.0000E+00  -1.1745E+08      0.000
 --------------------------------------------------------------------------------

 
 SOLVING FOR HEAD 
     6 ITERATIONS FOR TIME STEP  23 IN STRESS PERIOD    1

 HEAD/DRAWDOWN PRINTOUT FLAG = 0     TOTAL BUDGET PRINTOUT FLAG = 0
 CELL-BY-CELL FLOW TERM FLAG = 1

 OUTPUT FLAGS FOR ALL LAYERS ARE THE SAME:
   HEAD    DRAWDOWN  HEAD  DRAWDOWN
 PRINTOUT  PRINTOUT  SAVE    SAVE
 ----------------------------------
     0         0       0       0



 STREAM LISTING     PERIOD      1   STEP       23

 LAYER ROW COL. STREAM  RCH.  FLOW INTO     FLOW TO   FLOW OUT OF   OVRLND.     DIRECT     STREAM       STREAM     STREAM     STREAM   STREAMBED  STREAMBED
                SEG.NO.  NO.  STRM. RCH.    AQUIFER    STRM. RCH.    RUNOFF     PRECIP       ET          HEAD       DEPTH      WIDTH   CONDCTNC.   GRADIENT

   1    2    5     1     1    6.9120E+05 -6.2843E+04   7.5404E+05  0.000E+00  0.000E+00  0.000E+00  1.25320E+02  1.372E+00  5.000E+00  5.000E+03 -2.514E+01
   1    3    5     1     2    7.5404E+05 -1.9439E+04   7.7348E+05  0.000E+00  0.000E+00  0.000E+00  1.24263E+02  1.419E+00  5.000E+00  5.000E+03 -7.776E+00
   1    4    5     1     3    7.7348E+05 -6.2177E+03   7.7970E+05  0.000E+00  0.000E+00  0.000E+00  1.23174E+02  1.433E+00  5.000E+00  5.000E+03 -2.487E+00
   1    4    6     1     4    7.7970E+05 -8.6039E+03   7.8830E+05  0.000E+00  0.000E+00  0.000E+00  1.22079E+02  1.441E+00  5.000E+00  5.000E+03 -3.442E+00
   1    4    7     1     5    7.8830E+05 -4.9418E+03   7.9325E+05  0.000E+00  0.000E+00  0.000E+00  1.21259E+02  1.448E+00  5.000E+00  2.500E+03 -3.953E+00
   1    4    8     1     6    7.9325E+05 -8.2839E+03   8.0153E+05  0.000E+00  0.000E+00  0.000E+00  1.20576E+02  1.456E+00  5.000E+00  3.750E+03 -4.418E+00
   1    5    8     1     7    8.0153E+05 -7.2236E+03   8.0875E+05  0.000E+00  0.000E+00  0.000E+00  1.19619E+02  1.464E+00  5.000E+00  5.000E+03 -2.889E+00
   1    6    8     1     8    8.0875E+05 -5.6370E+03   8.1439E+05  0.000E+00  0.000E+00  0.000E+00  1.18523E+02  1.471E+00  5.000E+00  5.000E+03 -2.255E+00
   1   12    9     2     1    8.7498E+05 -9.9431E+03   8.8492E+05  0.000E+00  0.000E+00  0.000E+00  1.16127E+02  1.688E+00  5.000E+00  5.000E+03 -3.977E+00
   1   13    9     2     2    8.8492E+05 -1.3934E+04   8.9885E+05  0.000E+00  0.000E+00  0.000E+00  1.15320E+02  1.701E+00  5.000E+00  5.000E+03 -5.574E+00
   1   14   10     2     3    8.9885E+05 -7.5132E+03   9.0637E+05  0.000E+00  0.000E+00  0.000E+00  1.14693E+02  1.714E+00  5.000E+00  2.795E+03 -5.376E+00
   1   14   10     2     4    9.0637E+05 -8.7695E+03   9.1514E+05  0.000E+00  0.000E+00  0.000E+00  1.14244E+02  1.723E+00  5.000E+00  2.795E+03 -6.275E+00
   1   15   10     2     5    9.1514E+05 -1.5459E+04   9.3059E+05  0.000E+00  0.000E+00  0.000E+00  1.13618E+02  1.737E+00  5.000E+00  5.000E+03 -6.183E+00
   1   16   10     2     6    9.3059E+05 -1.1843E+04   9.4244E+05  0.000E+00  0.000E+00  0.000E+00  1.12812E+02  1.752E+00  5.000E+00  5.000E+03 -4.737E+00
   1   22   10     3     1    1.0472E+06 -1.4966E+04   1.0622E+06  0.000E+00  0.000E+00  0.000E+00  1.10759E+02  1.803E+00  5.000E+00  5.000E+03 -5.986E+00
   1   23   10     3     2    1.0622E+06 -1.7423E+04   1.0796E+06  0.000E+00  0.000E+00  0.000E+00  1.09948E+02  1.820E+00  5.000E+00  3.750E+03 -9.292E+00
   1   23   11     3     3    1.0796E+06 -1.1852E+04   1.0915E+06  0.000E+00  0.000E+00  0.000E+00  1.09371E+02  1.834E+00  5.000E+00  2.500E+03 -9.482E+00
   1   23   12     3     4    1.0915E+06 -2.5806E+04   1.1173E+06  0.000E+00  0.000E+00  0.000E+00  1.08681E+02  1.853E+00  5.000E+00  5.000E+03 -1.032E+01
   1   23   13     3     5    1.1173E+06 -2.8238E+04   1.1455E+06  0.000E+00  0.000E+00  0.000E+00  1.07762E+02  1.881E+00  5.000E+00  5.000E+03 -1.130E+01
   1   23   14     3     6    1.1455E+06 -3.1619E+04   1.1771E+06  0.000E+00  0.000E+00  0.000E+00  1.06846E+02  1.910E+00  5.000E+00  5.000E+03 -1.265E+01
   1   23   15     3     7    1.1771E+06 -4.2028E+04   1.2192E+06  0.000E+00  0.000E+00  0.000E+00  1.05936E+02  1.946E+00  5.000E+00  5.000E+03 -1.681E+01
   1   23   16     3     8    1.2192E+06 -8.0899E+04   1.3001E+06  0.000E+00  0.000E+00  0.000E+00  1.05050E+02  2.006E+00  5.000E+00  5.000E+03 -3.236E+01





     0  LAKE CELLS ARE DRY.

 PERIOD     1     TIME STEP    23     TIME STEP LENGTH  4.8903E+00
 PERIOD TIME  1.0653E+02     TOTAL SIMULATION TIME  1.0653E+02


                 HYDROLOGIC BUDGET SUMMARIES FOR SIMULATED LAKES
     (ALL FLUID FLUXES ARE VOLUMES ADDED TO THE LAKE DURING PRESENT TIME STEP)
     -------------------------------------------------------------------------
 LAKE    STAGE         VOLUME     VOL.CHANGE      PRECIP     EVAPORATION        RUNOFF
   1   116.5319     8.2074E+07    8.4128E+04    3.5455E+05    3.1481E+05    0.0000E+00
   2   111.2240     4.8899E+07    9.6612E+04    3.5455E+05    3.1481E+05    0.0000E+00

            GROUND WATER            SURFACE WATER        WATER
 LAKE    INFLOW     OUTFLOW      INFLOW     OUTFLOW       USE
   1  3.4068E+05  0.0000E+00  3.9826E+06  4.2789E+06  0.0000E+00
   2  5.6929E+05  0.0000E+00  4.6088E+06  5.1212E+06  0.0000E+00

      CONNECTED LAKE   TIME-STEP         STAGE-CHANGE          PERCENT
 LAKE    INFLUX      SURFACE AREA   TIME STEP  CUMULATIVE    DISCREPANCY
   1   0.0000E+00     6.2500E+06   1.3461E-02 -1.3468E+01       0.000
   2   0.0000E+00     6.2500E+06   1.5459E-02 -1.8776E+01       0.000
 --------------------------------------------------------------------------------



            CUMULATIVE HYDROLOGIC BUDGET SUMMARIES FOR SIMULATED LAKES
     (ALL FLUID FLUXES ARE SUMS OF VOLUMES ADDED TO THE LAKE SINCE INITIAL TIME)
     ---------------------------------------------------------------------------
 LAKE       PRECIP       EVAP       RUNOFF
   1     7.7234E+06  6.8579E+06  0.0000E+00
   2     7.7234E+06  6.8579E+06  0.0000E+00

            GROUND WATER            SURFACE WATER
 LAKE    INFLOW     OUTFLOW      INFLOW     OUTFLOW
   1  3.6962E+06  1.5644E+06  7.5911E+07  1.6308E+08
   2  9.3298E+06  1.4259E+06  1.6769E+08  2.9381E+08

         WATER    CONNECTED LAKE   CHANGE       PERCENT
 LAKE     USE         INFLUX       IN VOL.    DISCREPANCY
   1   0.0000E+00   0.0000E+00  -8.4175E+07      0.000
   2   0.0000E+00   0.0000E+00  -1.1735E+08      0.000
 --------------------------------------------------------------------------------

 
 SOLVING FOR HEAD 
     6 ITERATIONS FOR TIME STEP  24 IN STRESS PERIOD    1

 HEAD/DRAWDOWN PRINTOUT FLAG = 0     TOTAL BUDGET PRINTOUT FLAG = 0
 CELL-BY-CELL FLOW TERM FLAG = 1

 OUTPUT FLAGS FOR ALL LAYERS ARE THE SAME:
   HEAD    DRAWDOWN  HEAD  DRAWDOWN
 PRINTOUT  PRINTOUT  SAVE    SAVE
 ----------------------------------
     0         0       0       0



 STREAM LISTING     PERIOD      1   STEP       24

 LAYER ROW COL. STREAM  RCH.  FLOW INTO     FLOW TO   FLOW OUT OF   OVRLND.     DIRECT     STREAM       STREAM     STREAM     STREAM   STREAMBED  STREAMBED
                SEG.NO.  NO.  STRM. RCH.    AQUIFER    STRM. RCH.    RUNOFF     PRECIP       ET          HEAD       DEPTH      WIDTH   CONDCTNC.   GRADIENT

   1    2    5     1     1    6.9120E+05 -6.3995E+04   7.5519E+05  0.000E+00  0.000E+00  0.000E+00  1.25321E+02  1.373E+00  5.000E+00  5.000E+03 -2.560E+01
   1    3    5     1     2    7.5519E+05 -2.1136E+04   7.7633E+05  0.000E+00  0.000E+00  0.000E+00  1.24266E+02  1.421E+00  5.000E+00  5.000E+03 -8.454E+00
   1    4    5     1     3    7.7633E+05 -7.5789E+03   7.8391E+05  0.000E+00  0.000E+00  0.000E+00  1.23178E+02  1.437E+00  5.000E+00  5.000E+03 -3.032E+00
   1    4    6     1     4    7.8391E+05 -9.7542E+03   7.9366E+05  0.000E+00  0.000E+00  0.000E+00  1.22084E+02  1.446E+00  5.000E+00  5.000E+03 -3.902E+00
   1    4    7     1     5    7.9366E+05 -5.4782E+03   7.9914E+05  0.000E+00  0.000E+00  0.000E+00  1.21265E+02  1.455E+00  5.000E+00  2.500E+03 -4.383E+00
   1    4    8     1     6    7.9914E+05 -9.0998E+03   8.0824E+05  0.000E+00  0.000E+00  0.000E+00  1.20583E+02  1.463E+00  5.000E+00  3.750E+03 -4.853E+00
   1    5    8     1     7    8.0824E+05 -7.8623E+03   8.1610E+05  0.000E+00  0.000E+00  0.000E+00  1.19627E+02  1.472E+00  5.000E+00  5.000E+03 -3.145E+00
   1    6    8     1     8    8.1610E+05 -5.9930E+03   8.2210E+05  0.000E+00  0.000E+00  0.000E+00  1.18531E+02  1.479E+00  5.000E+00  5.000E+03 -2.397E+00
   1   12    9     2     1    8.8625E+05 -1.0174E+04   8.9642E+05  0.000E+00  0.000E+00  0.000E+00  1.16140E+02  1.701E+00  5.000E+00  5.000E+03 -4.070E+00
   1   13    9     2     2    8.9642E+05 -1.4307E+04   9.1073E+05  0.000E+00  0.000E+00  0.000E+00  1.15334E+02  1.715E+00  5.000E+00  5.000E+03 -5.723E+00
   1   14   10     2     3    9.1073E+05 -7.7135E+03   9.1844E+05  0.000E+00  0.000E+00  0.000E+00  1.14707E+02  1.727E+00  5.000E+00  2.795E+03 -5.520E+00
   1   14   10     2     4    9.1844E+05 -8.9693E+03   9.2741E+05  0.000E+00  0.000E+00  0.000E+00  1.14257E+02  1.737E+00  5.000E+00  2.795E+03 -6.418E+00
   1   15   10     2     5    9.2741E+05 -1.5747E+04   9.4316E+05  0.000E+00  0.000E+00  0.000E+00  1.13632E+02  1.751E+00  5.000E+00  5.000E+03 -6.299E+00
   1   16   10     2     6    9.4316E+05 -1.1971E+04   9.5513E+05  0.000E+00  0.000E+00  0.000E+00  1.12826E+02  1.766E+00  5.000E+00  5.000E+03 -4.789E+00
   1   22   10     3     1    1.0620E+06 -1.4991E+04   1.0770E+06  0.000E+00  0.000E+00  0.000E+00  1.10774E+02  1.818E+00  5.000E+00  5.000E+03 -5.996E+00
   1   23   10     3     2    1.0770E+06 -1.7654E+04   1.0947E+06  0.000E+00  0.000E+00  0.000E+00  1.09963E+02  1.835E+00  5.000E+00  3.750E+03 -9.415E+00
   1   23   11     3     3    1.0947E+06 -1.1963E+04   1.1066E+06  0.000E+00  0.000E+00  0.000E+00  1.09387E+02  1.850E+00  5.000E+00  2.500E+03 -9.570E+00
   1   23   12     3     4    1.1066E+06 -2.6003E+04   1.1326E+06  0.000E+00  0.000E+00  0.000E+00  1.08696E+02  1.869E+00  5.000E+00  5.000E+03 -1.040E+01
   1   23   13     3     5    1.1326E+06 -2.8491E+04   1.1611E+06  0.000E+00  0.000E+00  0.000E+00  1.07778E+02  1.896E+00  5.000E+00  5.000E+03 -1.140E+01
   1   23   14     3     6    1.1611E+06 -3.1984E+04   1.1931E+06  0.000E+00  0.000E+00  0.000E+00  1.06862E+02  1.926E+00  5.000E+00  5.000E+03 -1.279E+01
   1   23   15     3     7    1.1931E+06 -4.2601E+04   1.2357E+06  0.000E+00  0.000E+00  0.000E+00  1.05952E+02  1.962E+00  5.000E+00  5.000E+03 -1.704E+01
   1   23   16     3     8    1.2357E+06 -8.1390E+04   1.3171E+06  0.000E+00  0.000E+00  0.000E+00  1.05066E+02  2.022E+00  5.000E+00  5.000E+03 -3.256E+01





     0  LAKE CELLS ARE DRY.

 PERIOD     1     TIME STEP    24     TIME STEP LENGTH  4.9147E+00
 PERIOD TIME  1.1144E+02     TOTAL SIMULATION TIME  1.1144E+02


                 HYDROLOGIC BUDGET SUMMARIES FOR SIMULATED LAKES
     (ALL FLUID FLUXES ARE VOLUMES ADDED TO THE LAKE DURING PRESENT TIME STEP)
     -------------------------------------------------------------------------
 LAKE    STAGE         VOLUME     VOL.CHANGE      PRECIP     EVAPORATION        RUNOFF
   1   116.5450     8.2155E+07    8.1480E+04    3.5632E+05    3.1639E+05    0.0000E+00
   2   111.2392     4.8994E+07    9.4652E+04    3.5632E+05    3.1639E+05    0.0000E+00

            GROUND WATER            SURFACE WATER        WATER
 LAKE    INFLOW     OUTFLOW      INFLOW     OUTFLOW       USE
   1  3.5683E+05  0.0000E+00  4.0404E+06  4.3557E+06  0.0000E+00
   2  5.8005E+05  0.0000E+00  4.6942E+06  5.2195E+06  0.0000E+00

      CONNECTED LAKE   TIME-STEP         STAGE-CHANGE          PERCENT
 LAKE    INFLUX      SURFACE AREA   TIME STEP  CUMULATIVE    DISCREPANCY
   1   0.0000E+00     6.2500E+06   1.3036E-02 -1.3455E+01       0.000
   2   0.0000E+00     6.2500E+06   1.5144E-02 -1.8761E+01       0.000
 --------------------------------------------------------------------------------



            CUMULATIVE HYDROLOGIC BUDGET SUMMARIES FOR SIMULATED LAKES
     (ALL FLUID FLUXES ARE SUMS OF VOLUMES ADDED TO THE LAKE SINCE INITIAL TIME)
     ---------------------------------------------------------------------------
 LAKE       PRECIP       EVAP       RUNOFF
   1     8.0798E+06  7.1743E+06  0.0000E+00
   2     8.0798E+06  7.1743E+06  0.0000E+00

            GROUND WATER            SURFACE WATER
 LAKE    INFLOW     OUTFLOW      INFLOW     OUTFLOW
   1  4.0531E+06  1.5644E+06  7.9951E+07  1.6744E+08
   2  9.9099E+06  1.4259E+06  1.7238E+08  2.9903E+08

         WATER    CONNECTED LAKE   CHANGE       PERCENT
 LAKE     USE         INFLUX       IN VOL.    DISCREPANCY
   1   0.0000E+00   0.0000E+00  -8.4093E+07      0.000
   2   0.0000E+00   0.0000E+00  -1.1725E+08      0.000
 --------------------------------------------------------------------------------

 
 SOLVING FOR HEAD 
     6 ITERATIONS FOR TIME STEP  25 IN STRESS PERIOD    1

 HEAD/DRAWDOWN PRINTOUT FLAG = 0     TOTAL BUDGET PRINTOUT FLAG = 0
 CELL-BY-CELL FLOW TERM FLAG = 1

 OUTPUT FLAGS FOR ALL LAYERS ARE THE SAME:
   HEAD    DRAWDOWN  HEAD  DRAWDOWN
 PRINTOUT  PRINTOUT  SAVE    SAVE
 ----------------------------------
     0         0       0       0



 STREAM LISTING     PERIOD      1   STEP       25

 LAYER ROW COL. STREAM  RCH.  FLOW INTO     FLOW TO   FLOW OUT OF   OVRLND.     DIRECT     STREAM       STREAM     STREAM     STREAM   STREAMBED  STREAMBED
                SEG.NO.  NO.  STRM. RCH.    AQUIFER    STRM. RCH.    RUNOFF     PRECIP       ET          HEAD       DEPTH      WIDTH   CONDCTNC.   GRADIENT

   1    2    5     1     1    6.9120E+05 -6.5052E+04   7.5625E+05  0.000E+00  0.000E+00  0.000E+00  1.25322E+02  1.373E+00  5.000E+00  5.000E+03 -2.602E+01
   1    3    5     1     2    7.5625E+05 -2.2761E+04   7.7901E+05  0.000E+00  0.000E+00  0.000E+00  1.24268E+02  1.423E+00  5.000E+00  5.000E+03 -9.105E+00
   1    4    5     1     3    7.7901E+05 -8.9112E+03   7.8792E+05  0.000E+00  0.000E+00  0.000E+00  1.23182E+02  1.440E+00  5.000E+00  5.000E+03 -3.564E+00
   1    4    6     1     4    7.8792E+05 -1.0865E+04   7.9879E+05  0.000E+00  0.000E+00  0.000E+00  1.22089E+02  1.451E+00  5.000E+00  5.000E+03 -4.346E+00
   1    4    7     1     5    7.9879E+05 -6.0001E+03   8.0479E+05  0.000E+00  0.000E+00  0.000E+00  1.21271E+02  1.460E+00  5.000E+00  2.500E+03 -4.800E+00
   1    4    8     1     6    8.0479E+05 -9.9023E+03   8.1469E+05  0.000E+00  0.000E+00  0.000E+00  1.20590E+02  1.469E+00  5.000E+00  3.750E+03 -5.281E+00
   1    5    8     1     7    8.1469E+05 -8.4917E+03   8.2318E+05  0.000E+00  0.000E+00  0.000E+00  1.19634E+02  1.479E+00  5.000E+00  5.000E+03 -3.397E+00
   1    6    8     1     8    8.2318E+05 -6.3439E+03   8.2953E+05  0.000E+00  0.000E+00  0.000E+00  1.18539E+02  1.487E+00  5.000E+00  5.000E+03 -2.538E+00
   1   12    9     2     1    8.9727E+05 -1.0403E+04   9.0767E+05  0.000E+00  0.000E+00  0.000E+00  1.16153E+02  1.713E+00  5.000E+00  5.000E+03 -4.161E+00
   1   13    9     2     2    9.0767E+05 -1.4677E+04   9.2235E+05  0.000E+00  0.000E+00  0.000E+00  1.15347E+02  1.728E+00  5.000E+00  5.000E+03 -5.871E+00
   1   14   10     2     3    9.2235E+05 -7.9134E+03   9.3026E+05  0.000E+00  0.000E+00  0.000E+00  1.14720E+02  1.741E+00  5.000E+00  2.795E+03 -5.663E+00
   1   14   10     2     4    9.3026E+05 -9.1687E+03   9.3943E+05  0.000E+00  0.000E+00  0.000E+00  1.14271E+02  1.750E+00  5.000E+00  2.795E+03 -6.561E+00
   1   15   10     2     5    9.3943E+05 -1.6037E+04   9.5547E+05  0.000E+00  0.000E+00  0.000E+00  1.13645E+02  1.764E+00  5.000E+00  5.000E+03 -6.415E+00
   1   16   10     2     6    9.5547E+05 -1.2107E+04   9.6757E+05  0.000E+00  0.000E+00  0.000E+00  1.12840E+02  1.780E+00  5.000E+00  5.000E+03 -4.843E+00
   1   22   10     3     1    1.0766E+06 -1.5033E+04   1.0916E+06  0.000E+00  0.000E+00  0.000E+00  1.10789E+02  1.833E+00  5.000E+00  5.000E+03 -6.013E+00
   1   23   10     3     2    1.0916E+06 -1.7902E+04   1.1095E+06  0.000E+00  0.000E+00  0.000E+00  1.09978E+02  1.850E+00  5.000E+00  3.750E+03 -9.548E+00
   1   23   11     3     3    1.1095E+06 -1.2087E+04   1.1216E+06  0.000E+00  0.000E+00  0.000E+00  1.09402E+02  1.865E+00  5.000E+00  2.500E+03 -9.670E+00
   1   23   12     3     4    1.1216E+06 -2.6228E+04   1.1479E+06  0.000E+00  0.000E+00  0.000E+00  1.08711E+02  1.884E+00  5.000E+00  5.000E+03 -1.049E+01
   1   23   13     3     5    1.1479E+06 -2.8774E+04   1.1766E+06  0.000E+00  0.000E+00  0.000E+00  1.07793E+02  1.911E+00  5.000E+00  5.000E+03 -1.151E+01
   1   23   14     3     6    1.1766E+06 -3.2380E+04   1.2090E+06  0.000E+00  0.000E+00  0.000E+00  1.06877E+02  1.941E+00  5.000E+00  5.000E+03 -1.295E+01
   1   23   15     3     7    1.2090E+06 -4.3184E+04   1.2522E+06  0.000E+00  0.000E+00  0.000E+00  1.05968E+02  1.978E+00  5.000E+00  5.000E+03 -1.727E+01
   1   23   16     3     8    1.2522E+06 -8.1853E+04   1.3341E+06  0.000E+00  0.000E+00  0.000E+00  1.05082E+02  2.037E+00  5.000E+00  5.000E+03 -3.274E+01





     0  LAKE CELLS ARE DRY.

 PERIOD     1     TIME STEP    25     TIME STEP LENGTH  4.9393E+00
 PERIOD TIME  1.1638E+02     TOTAL SIMULATION TIME  1.1638E+02


                 HYDROLOGIC BUDGET SUMMARIES FOR SIMULATED LAKES
     (ALL FLUID FLUXES ARE VOLUMES ADDED TO THE LAKE DURING PRESENT TIME STEP)
     -------------------------------------------------------------------------
 LAKE    STAGE         VOLUME     VOL.CHANGE      PRECIP     EVAPORATION        RUNOFF
   1   116.5576     8.2234E+07    7.8728E+04    3.5810E+05    3.1797E+05    0.0000E+00
   2   111.2540     4.9087E+07    9.2800E+04    3.5810E+05    3.1797E+05    0.0000E+00

            GROUND WATER            SURFACE WATER        WATER
 LAKE    INFLOW     OUTFLOW      INFLOW     OUTFLOW       USE
   1  3.7318E+05  0.0000E+00  4.0973E+06  4.4319E+06  0.0000E+00
   2  5.9124E+05  0.0000E+00  4.7791E+06  5.3177E+06  0.0000E+00

      CONNECTED LAKE   TIME-STEP         STAGE-CHANGE          PERCENT
 LAKE    INFLUX      SURFACE AREA   TIME STEP  CUMULATIVE    DISCREPANCY
   1   0.0000E+00     6.2500E+06   1.2596E-02 -1.3442E+01       0.000
   2   0.0000E+00     6.2500E+06   1.4848E-02 -1.8746E+01       0.000
 --------------------------------------------------------------------------------



            CUMULATIVE HYDROLOGIC BUDGET SUMMARIES FOR SIMULATED LAKES
     (ALL FLUID FLUXES ARE SUMS OF VOLUMES ADDED TO THE LAKE SINCE INITIAL TIME)
     ---------------------------------------------------------------------------
 LAKE       PRECIP       EVAP       RUNOFF
   1     8.4378E+06  7.4922E+06  0.0000E+00
   2     8.4378E+06  7.4922E+06  0.0000E+00

            GROUND WATER            SURFACE WATER
 LAKE    INFLOW     OUTFLOW      INFLOW     OUTFLOW
   1  4.4262E+06  1.5644E+06  8.4049E+07  1.7187E+08
   2  1.0501E+07  1.4259E+06  1.7716E+08  3.0435E+08

         WATER    CONNECTED LAKE   CHANGE       PERCENT
 LAKE     USE         INFLUX       IN VOL.    DISCREPANCY
   1   0.0000E+00   0.0000E+00  -8.4015E+07      0.000
   2   0.0000E+00   0.0000E+00  -1.1716E+08      0.000
 --------------------------------------------------------------------------------

 
 SOLVING FOR HEAD 
     6 ITERATIONS FOR TIME STEP  26 IN STRESS PERIOD    1

 HEAD/DRAWDOWN PRINTOUT FLAG = 0     TOTAL BUDGET PRINTOUT FLAG = 0
 CELL-BY-CELL FLOW TERM FLAG = 1

 OUTPUT FLAGS FOR ALL LAYERS ARE THE SAME:
   HEAD    DRAWDOWN  HEAD  DRAWDOWN
 PRINTOUT  PRINTOUT  SAVE    SAVE
 ----------------------------------
     0         0       0       0



 STREAM LISTING     PERIOD      1   STEP       26

 LAYER ROW COL. STREAM  RCH.  FLOW INTO     FLOW TO   FLOW OUT OF   OVRLND.     DIRECT     STREAM       STREAM     STREAM     STREAM   STREAMBED  STREAMBED
                SEG.NO.  NO.  STRM. RCH.    AQUIFER    STRM. RCH.    RUNOFF     PRECIP       ET          HEAD       DEPTH      WIDTH   CONDCTNC.   GRADIENT

   1    2    5     1     1    6.9120E+05 -6.6025E+04   7.5722E+05  0.000E+00  0.000E+00  0.000E+00  1.25322E+02  1.374E+00  5.000E+00  5.000E+03 -2.641E+01
   1    3    5     1     2    7.5722E+05 -2.4319E+04   7.8154E+05  0.000E+00  0.000E+00  0.000E+00  1.24270E+02  1.425E+00  5.000E+00  5.000E+03 -9.728E+00
   1    4    5     1     3    7.8154E+05 -1.0218E+04   7.9176E+05  0.000E+00  0.000E+00  0.000E+00  1.23185E+02  1.444E+00  5.000E+00  5.000E+03 -4.087E+00
   1    4    6     1     4    7.9176E+05 -1.1940E+04   8.0370E+05  0.000E+00  0.000E+00  0.000E+00  1.22094E+02  1.456E+00  5.000E+00  5.000E+03 -4.776E+00
   1    4    7     1     5    8.0370E+05 -6.5080E+03   8.1021E+05  0.000E+00  0.000E+00  0.000E+00  1.21276E+02  1.466E+00  5.000E+00  2.500E+03 -5.206E+00
   1    4    8     1     6    8.1021E+05 -1.0691E+04   8.2090E+05  0.000E+00  0.000E+00  0.000E+00  1.20596E+02  1.475E+00  5.000E+00  3.750E+03 -5.702E+00
   1    5    8     1     7    8.2090E+05 -9.1125E+03   8.3001E+05  0.000E+00  0.000E+00  0.000E+00  1.19641E+02  1.486E+00  5.000E+00  5.000E+03 -3.645E+00
   1    6    8     1     8    8.3001E+05 -6.6903E+03   8.3670E+05  0.000E+00  0.000E+00  0.000E+00  1.18546E+02  1.495E+00  5.000E+00  5.000E+03 -2.676E+00
   1   12    9     2     1    9.0801E+05 -1.0631E+04   9.1864E+05  0.000E+00  0.000E+00  0.000E+00  1.16166E+02  1.726E+00  5.000E+00  5.000E+03 -4.252E+00
   1   13    9     2     2    9.1864E+05 -1.5045E+04   9.3368E+05  0.000E+00  0.000E+00  0.000E+00  1.15359E+02  1.740E+00  5.000E+00  5.000E+03 -6.018E+00
   1   14   10     2     3    9.3368E+05 -8.1130E+03   9.4179E+05  0.000E+00  0.000E+00  0.000E+00  1.14733E+02  1.753E+00  5.000E+00  2.795E+03 -5.805E+00
   1   14   10     2     4    9.4179E+05 -9.3678E+03   9.5116E+05  0.000E+00  0.000E+00  0.000E+00  1.14284E+02  1.763E+00  5.000E+00  2.795E+03 -6.703E+00
   1   15   10     2     5    9.5116E+05 -1.6329E+04   9.6749E+05  0.000E+00  0.000E+00  0.000E+00  1.13658E+02  1.777E+00  5.000E+00  5.000E+03 -6.532E+00
   1   16   10     2     6    9.6749E+05 -1.2251E+04   9.7974E+05  0.000E+00  0.000E+00  0.000E+00  1.12854E+02  1.793E+00  5.000E+00  5.000E+03 -4.900E+00
   1   22   10     3     1    1.0909E+06 -1.5089E+04   1.1060E+06  0.000E+00  0.000E+00  0.000E+00  1.10803E+02  1.848E+00  5.000E+00  5.000E+03 -6.036E+00
   1   23   10     3     2    1.1060E+06 -1.8167E+04   1.1242E+06  0.000E+00  0.000E+00  0.000E+00  1.09992E+02  1.864E+00  5.000E+00  3.750E+03 -9.689E+00
   1   23   11     3     3    1.1242E+06 -1.2223E+04   1.1364E+06  0.000E+00  0.000E+00  0.000E+00  1.09416E+02  1.879E+00  5.000E+00  2.500E+03 -9.779E+00
   1   23   12     3     4    1.1364E+06 -2.6478E+04   1.1629E+06  0.000E+00  0.000E+00  0.000E+00  1.08726E+02  1.899E+00  5.000E+00  5.000E+03 -1.059E+01
   1   23   13     3     5    1.1629E+06 -2.9083E+04   1.1920E+06  0.000E+00  0.000E+00  0.000E+00  1.07808E+02  1.926E+00  5.000E+00  5.000E+03 -1.163E+01
   1   23   14     3     6    1.1920E+06 -3.2803E+04   1.2248E+06  0.000E+00  0.000E+00  0.000E+00  1.06892E+02  1.956E+00  5.000E+00  5.000E+03 -1.312E+01
   1   23   15     3     7    1.2248E+06 -4.3772E+04   1.2686E+06  0.000E+00  0.000E+00  0.000E+00  1.05983E+02  1.993E+00  5.000E+00  5.000E+03 -1.751E+01
   1   23   16     3     8    1.2686E+06 -8.2289E+04   1.3509E+06  0.000E+00  0.000E+00  0.000E+00  1.05097E+02  2.053E+00  5.000E+00  5.000E+03 -3.292E+01





     0  LAKE CELLS ARE DRY.

 PERIOD     1     TIME STEP    26     TIME STEP LENGTH  4.9640E+00
 PERIOD TIME  1.2135E+02     TOTAL SIMULATION TIME  1.2135E+02


                 HYDROLOGIC BUDGET SUMMARIES FOR SIMULATED LAKES
     (ALL FLUID FLUXES ARE VOLUMES ADDED TO THE LAKE DURING PRESENT TIME STEP)
     -------------------------------------------------------------------------
 LAKE    STAGE         VOLUME     VOL.CHANGE      PRECIP     EVAPORATION        RUNOFF
   1   116.5697     8.2310E+07    7.6128E+04    3.5989E+05    3.1956E+05    0.0000E+00
   2   111.2686     4.9178E+07    9.1148E+04    3.5989E+05    3.1956E+05    0.0000E+00

            GROUND WATER            SURFACE WATER        WATER
 LAKE    INFLOW     OUTFLOW      INFLOW     OUTFLOW       USE
   1  3.8974E+05  0.0000E+00  4.1534E+06  4.5073E+06  0.0000E+00
   2  6.0284E+05  0.0000E+00  4.8634E+06  5.4155E+06  0.0000E+00

      CONNECTED LAKE   TIME-STEP         STAGE-CHANGE          PERCENT
 LAKE    INFLUX      SURFACE AREA   TIME STEP  CUMULATIVE    DISCREPANCY
   1   0.0000E+00     6.2500E+06   1.2180E-02 -1.3430E+01       0.000
   2   0.0000E+00     6.2500E+06   1.4585E-02 -1.8731E+01       0.000
 --------------------------------------------------------------------------------



            CUMULATIVE HYDROLOGIC BUDGET SUMMARIES FOR SIMULATED LAKES
     (ALL FLUID FLUXES ARE SUMS OF VOLUMES ADDED TO THE LAKE SINCE INITIAL TIME)
     ---------------------------------------------------------------------------
 LAKE       PRECIP       EVAP       RUNOFF
   1     8.7977E+06  7.8118E+06  0.0000E+00
   2     8.7977E+06  7.8118E+06  0.0000E+00

            GROUND WATER            SURFACE WATER
 LAKE    INFLOW     OUTFLOW      INFLOW     OUTFLOW
   1  4.8160E+06  1.5644E+06  8.8202E+07  1.7638E+08
   2  1.1104E+07  1.4259E+06  1.8203E+08  3.0976E+08

         WATER    CONNECTED LAKE   CHANGE       PERCENT
 LAKE     USE         INFLUX       IN VOL.    DISCREPANCY
   1   0.0000E+00   0.0000E+00  -8.3938E+07      0.000
   2   0.0000E+00   0.0000E+00  -1.1707E+08      0.000
 --------------------------------------------------------------------------------

 
 SOLVING FOR HEAD 
     6 ITERATIONS FOR TIME STEP  27 IN STRESS PERIOD    1

 HEAD/DRAWDOWN PRINTOUT FLAG = 0     TOTAL BUDGET PRINTOUT FLAG = 0
 CELL-BY-CELL FLOW TERM FLAG = 1

 OUTPUT FLAGS FOR ALL LAYERS ARE THE SAME:
   HEAD    DRAWDOWN  HEAD  DRAWDOWN
 PRINTOUT  PRINTOUT  SAVE    SAVE
 ----------------------------------
     0         0       0       0



 STREAM LISTING     PERIOD      1   STEP       27

 LAYER ROW COL. STREAM  RCH.  FLOW INTO     FLOW TO   FLOW OUT OF   OVRLND.     DIRECT     STREAM       STREAM     STREAM     STREAM   STREAMBED  STREAMBED
                SEG.NO.  NO.  STRM. RCH.    AQUIFER    STRM. RCH.    RUNOFF     PRECIP       ET          HEAD       DEPTH      WIDTH   CONDCTNC.   GRADIENT

   1    2    5     1     1    6.9120E+05 -6.6922E+04   7.5812E+05  0.000E+00  0.000E+00  0.000E+00  1.25323E+02  1.374E+00  5.000E+00  5.000E+03 -2.677E+01
   1    3    5     1     2    7.5812E+05 -2.5812E+04   7.8393E+05  0.000E+00  0.000E+00  0.000E+00  1.24271E+02  1.427E+00  5.000E+00  5.000E+03 -1.032E+01
   1    4    5     1     3    7.8393E+05 -1.1503E+04   7.9544E+05  0.000E+00  0.000E+00  0.000E+00  1.23189E+02  1.447E+00  5.000E+00  5.000E+03 -4.601E+00
   1    4    6     1     4    7.9544E+05 -1.2980E+04   8.0842E+05  0.000E+00  0.000E+00  0.000E+00  1.22099E+02  1.461E+00  5.000E+00  5.000E+03 -5.192E+00
   1    4    7     1     5    8.0842E+05 -7.0024E+03   8.1542E+05  0.000E+00  0.000E+00  0.000E+00  1.21282E+02  1.472E+00  5.000E+00  2.500E+03 -5.602E+00
   1    4    8     1     6    8.1542E+05 -1.1466E+04   8.2689E+05  0.000E+00  0.000E+00  0.000E+00  1.20602E+02  1.482E+00  5.000E+00  3.750E+03 -6.115E+00
   1    5    8     1     7    8.2689E+05 -9.7253E+03   8.3661E+05  0.000E+00  0.000E+00  0.000E+00  1.19648E+02  1.493E+00  5.000E+00  5.000E+03 -3.890E+00
   1    6    8     1     8    8.3661E+05 -7.0324E+03   8.4364E+05  0.000E+00  0.000E+00  0.000E+00  1.18554E+02  1.502E+00  5.000E+00  5.000E+03 -2.813E+00
   1   12    9     2     1    9.1844E+05 -1.0858E+04   9.2930E+05  0.000E+00  0.000E+00  0.000E+00  1.16177E+02  1.738E+00  5.000E+00  5.000E+03 -4.343E+00
   1   13    9     2     2    9.2930E+05 -1.5410E+04   9.4471E+05  0.000E+00  0.000E+00  0.000E+00  1.15372E+02  1.753E+00  5.000E+00  5.000E+03 -6.164E+00
   1   14   10     2     3    9.4471E+05 -8.3122E+03   9.5302E+05  0.000E+00  0.000E+00  0.000E+00  1.14745E+02  1.766E+00  5.000E+00  2.795E+03 -5.948E+00
   1   14   10     2     4    9.5302E+05 -9.5665E+03   9.6258E+05  0.000E+00  0.000E+00  0.000E+00  1.14296E+02  1.776E+00  5.000E+00  2.795E+03 -6.845E+00
   1   15   10     2     5    9.6258E+05 -1.6623E+04   9.7921E+05  0.000E+00  0.000E+00  0.000E+00  1.13671E+02  1.790E+00  5.000E+00  5.000E+03 -6.649E+00
   1   16   10     2     6    9.7921E+05 -1.2400E+04   9.9161E+05  0.000E+00  0.000E+00  0.000E+00  1.12867E+02  1.806E+00  5.000E+00  5.000E+03 -4.960E+00
   1   22   10     3     1    1.1051E+06 -1.5159E+04   1.1202E+06  0.000E+00  0.000E+00  0.000E+00  1.10817E+02  1.862E+00  5.000E+00  5.000E+03 -6.064E+00
   1   23   10     3     2    1.1202E+06 -1.8447E+04   1.1387E+06  0.000E+00  0.000E+00  0.000E+00  1.10007E+02  1.879E+00  5.000E+00  3.750E+03 -9.838E+00
   1   23   11     3     3    1.1387E+06 -1.2371E+04   1.1511E+06  0.000E+00  0.000E+00  0.000E+00  1.09431E+02  1.894E+00  5.000E+00  2.500E+03 -9.896E+00
   1   23   12     3     4    1.1511E+06 -2.6750E+04   1.1778E+06  0.000E+00  0.000E+00  0.000E+00  1.08741E+02  1.913E+00  5.000E+00  5.000E+03 -1.070E+01
   1   23   13     3     5    1.1778E+06 -2.9415E+04   1.2072E+06  0.000E+00  0.000E+00  0.000E+00  1.07823E+02  1.941E+00  5.000E+00  5.000E+03 -1.177E+01
   1   23   14     3     6    1.2072E+06 -3.3247E+04   1.2405E+06  0.000E+00  0.000E+00  0.000E+00  1.06907E+02  1.971E+00  5.000E+00  5.000E+03 -1.330E+01
   1   23   15     3     7    1.2405E+06 -4.4362E+04   1.2848E+06  0.000E+00  0.000E+00  0.000E+00  1.05999E+02  2.009E+00  5.000E+00  5.000E+03 -1.774E+01
   1   23   16     3     8    1.2848E+06 -8.2700E+04   1.3675E+06  0.000E+00  0.000E+00  0.000E+00  1.05113E+02  2.069E+00  5.000E+00  5.000E+03 -3.308E+01





     0  LAKE CELLS ARE DRY.

 PERIOD     1     TIME STEP    27     TIME STEP LENGTH  4.9888E+00
 PERIOD TIME  1.2634E+02     TOTAL SIMULATION TIME  1.2634E+02


                 HYDROLOGIC BUDGET SUMMARIES FOR SIMULATED LAKES
     (ALL FLUID FLUXES ARE VOLUMES ADDED TO THE LAKE DURING PRESENT TIME STEP)
     -------------------------------------------------------------------------
 LAKE    STAGE         VOLUME     VOL.CHANGE      PRECIP     EVAPORATION        RUNOFF
   1   116.5816     8.2384E+07    7.3944E+04    3.6169E+05    3.2116E+05    0.0000E+00
   2   111.2829     4.9267E+07    8.9364E+04    3.6169E+05    3.2116E+05    0.0000E+00

            GROUND WATER            SURFACE WATER        WATER
 LAKE    INFLOW     OUTFLOW      INFLOW     OUTFLOW       USE
   1  4.0655E+05  0.0000E+00  4.2088E+06  4.5819E+06  0.0000E+00
   2  6.1489E+05  0.0000E+00  4.9470E+06  5.5130E+06  0.0000E+00

      CONNECTED LAKE   TIME-STEP         STAGE-CHANGE          PERCENT
 LAKE    INFLUX      SURFACE AREA   TIME STEP  CUMULATIVE    DISCREPANCY
   1   0.0000E+00     6.2500E+06   1.1832E-02 -1.3418E+01       0.000
   2   0.0000E+00     6.2500E+06   1.4298E-02 -1.8717E+01       0.000
 --------------------------------------------------------------------------------



            CUMULATIVE HYDROLOGIC BUDGET SUMMARIES FOR SIMULATED LAKES
     (ALL FLUID FLUXES ARE SUMS OF VOLUMES ADDED TO THE LAKE SINCE INITIAL TIME)
     ---------------------------------------------------------------------------
 LAKE       PRECIP       EVAP       RUNOFF
   1     9.1594E+06  8.1329E+06  0.0000E+00
   2     9.1594E+06  8.1329E+06  0.0000E+00

            GROUND WATER            SURFACE WATER
 LAKE    INFLOW     OUTFLOW      INFLOW     OUTFLOW
   1  5.2225E+06  1.5644E+06  9.2411E+07  1.8096E+08
   2  1.1719E+07  1.4259E+06  1.8697E+08  3.1527E+08

         WATER    CONNECTED LAKE   CHANGE       PERCENT
 LAKE     USE         INFLUX       IN VOL.    DISCREPANCY
   1   0.0000E+00   0.0000E+00  -8.3865E+07      0.000
   2   0.0000E+00   0.0000E+00  -1.1698E+08      0.000
 --------------------------------------------------------------------------------

 
 SOLVING FOR HEAD 
     6 ITERATIONS FOR TIME STEP  28 IN STRESS PERIOD    1

 HEAD/DRAWDOWN PRINTOUT FLAG = 0     TOTAL BUDGET PRINTOUT FLAG = 0
 CELL-BY-CELL FLOW TERM FLAG = 1

 OUTPUT FLAGS FOR ALL LAYERS ARE THE SAME:
   HEAD    DRAWDOWN  HEAD  DRAWDOWN
 PRINTOUT  PRINTOUT  SAVE    SAVE
 ----------------------------------
     0         0       0       0



 STREAM LISTING     PERIOD      1   STEP       28

 LAYER ROW COL. STREAM  RCH.  FLOW INTO     FLOW TO   FLOW OUT OF   OVRLND.     DIRECT     STREAM       STREAM     STREAM     STREAM   STREAMBED  STREAMBED
                SEG.NO.  NO.  STRM. RCH.    AQUIFER    STRM. RCH.    RUNOFF     PRECIP       ET          HEAD       DEPTH      WIDTH   CONDCTNC.   GRADIENT

   1    2    5     1     1    6.9120E+05 -6.7753E+04   7.5895E+05  0.000E+00  0.000E+00  0.000E+00  1.25323E+02  1.375E+00  5.000E+00  5.000E+03 -2.710E+01
   1    3    5     1     2    7.5895E+05 -2.7244E+04   7.8620E+05  0.000E+00  0.000E+00  0.000E+00  1.24273E+02  1.428E+00  5.000E+00  5.000E+03 -1.090E+01
   1    4    5     1     3    7.8620E+05 -1.2767E+04   7.9896E+05  0.000E+00  0.000E+00  0.000E+00  1.23192E+02  1.450E+00  5.000E+00  5.000E+03 -5.107E+00
   1    4    6     1     4    7.9896E+05 -1.3988E+04   8.1295E+05  0.000E+00  0.000E+00  0.000E+00  1.22103E+02  1.465E+00  5.000E+00  5.000E+03 -5.595E+00
   1    4    7     1     5    8.1295E+05 -7.4836E+03   8.2043E+05  0.000E+00  0.000E+00  0.000E+00  1.21287E+02  1.477E+00  5.000E+00  2.500E+03 -5.987E+00
   1    4    8     1     6    8.2043E+05 -1.2227E+04   8.3266E+05  0.000E+00  0.000E+00  0.000E+00  1.20608E+02  1.487E+00  5.000E+00  3.750E+03 -6.521E+00
   1    5    8     1     7    8.3266E+05 -1.0331E+04   8.4299E+05  0.000E+00  0.000E+00  0.000E+00  1.19655E+02  1.500E+00  5.000E+00  5.000E+03 -4.132E+00
   1    6    8     1     8    8.4299E+05 -7.3709E+03   8.5036E+05  0.000E+00  0.000E+00  0.000E+00  1.18561E+02  1.509E+00  5.000E+00  5.000E+03 -2.948E+00
   1   12    9     2     1    9.2860E+05 -1.1084E+04   9.3968E+05  0.000E+00  0.000E+00  0.000E+00  1.16189E+02  1.749E+00  5.000E+00  5.000E+03 -4.433E+00
   1   13    9     2     2    9.3968E+05 -1.5774E+04   9.5546E+05  0.000E+00  0.000E+00  0.000E+00  1.15383E+02  1.764E+00  5.000E+00  5.000E+03 -6.309E+00
   1   14   10     2     3    9.5546E+05 -8.5110E+03   9.6397E+05  0.000E+00  0.000E+00  0.000E+00  1.14757E+02  1.778E+00  5.000E+00  2.795E+03 -6.090E+00
   1   14   10     2     4    9.6397E+05 -9.7648E+03   9.7373E+05  0.000E+00  0.000E+00  0.000E+00  1.14309E+02  1.788E+00  5.000E+00  2.795E+03 -6.987E+00
   1   15   10     2     5    9.7373E+05 -1.6919E+04   9.9065E+05  0.000E+00  0.000E+00  0.000E+00  1.13684E+02  1.803E+00  5.000E+00  5.000E+03 -6.768E+00
   1   16   10     2     6    9.9065E+05 -1.2555E+04   1.0032E+06  0.000E+00  0.000E+00  0.000E+00  1.12879E+02  1.819E+00  5.000E+00  5.000E+03 -5.022E+00
   1   22   10     3     1    1.1190E+06 -1.5240E+04   1.1343E+06  0.000E+00  0.000E+00  0.000E+00  1.10831E+02  1.876E+00  5.000E+00  5.000E+03 -6.096E+00
   1   23   10     3     2    1.1343E+06 -1.8739E+04   1.1530E+06  0.000E+00  0.000E+00  0.000E+00  1.10021E+02  1.893E+00  5.000E+00  3.750E+03 -9.994E+00
   1   23   11     3     3    1.1530E+06 -1.2527E+04   1.1656E+06  0.000E+00  0.000E+00  0.000E+00  1.09445E+02  1.908E+00  5.000E+00  2.500E+03 -1.002E+01
   1   23   12     3     4    1.1656E+06 -2.7041E+04   1.1926E+06  0.000E+00  0.000E+00  0.000E+00  1.08755E+02  1.928E+00  5.000E+00  5.000E+03 -1.082E+01
   1   23   13     3     5    1.1926E+06 -2.9767E+04   1.2224E+06  0.000E+00  0.000E+00  0.000E+00  1.07837E+02  1.955E+00  5.000E+00  5.000E+03 -1.191E+01
   1   23   14     3     6    1.2224E+06 -3.3710E+04   1.2561E+06  0.000E+00  0.000E+00  0.000E+00  1.06922E+02  1.986E+00  5.000E+00  5.000E+03 -1.348E+01
   1   23   15     3     7    1.2561E+06 -4.4952E+04   1.3010E+06  0.000E+00  0.000E+00  0.000E+00  1.06014E+02  2.024E+00  5.000E+00  5.000E+03 -1.798E+01
   1   23   16     3     8    1.3010E+06 -8.3087E+04   1.3841E+06  0.000E+00  0.000E+00  0.000E+00  1.05128E+02  2.084E+00  5.000E+00  5.000E+03 -3.323E+01





     0  LAKE CELLS ARE DRY.

 PERIOD     1     TIME STEP    28     TIME STEP LENGTH  5.0138E+00
 PERIOD TIME  1.3135E+02     TOTAL SIMULATION TIME  1.3135E+02


                 HYDROLOGIC BUDGET SUMMARIES FOR SIMULATED LAKES
     (ALL FLUID FLUXES ARE VOLUMES ADDED TO THE LAKE DURING PRESENT TIME STEP)
     -------------------------------------------------------------------------
 LAKE    STAGE         VOLUME     VOL.CHANGE      PRECIP     EVAPORATION        RUNOFF
   1   116.5931     8.2456E+07    7.2056E+04    3.6350E+05    3.2276E+05    0.0000E+00
   2   111.2969     4.9355E+07    8.7280E+04    3.6350E+05    3.2276E+05    0.0000E+00

            GROUND WATER            SURFACE WATER        WATER
 LAKE    INFLOW     OUTFLOW      INFLOW     OUTFLOW       USE
   1  4.2359E+05  0.0000E+00  4.2635E+06  4.6558E+06  0.0000E+00
   2  6.2734E+05  0.0000E+00  5.0298E+06  5.6106E+06  0.0000E+00

      CONNECTED LAKE   TIME-STEP         STAGE-CHANGE          PERCENT
 LAKE    INFLUX      SURFACE AREA   TIME STEP  CUMULATIVE    DISCREPANCY
   1   0.0000E+00     6.2500E+06   1.1528E-02 -1.3407E+01       0.000
   2   0.0000E+00     6.2500E+06   1.3965E-02 -1.8703E+01       0.000
 --------------------------------------------------------------------------------



            CUMULATIVE HYDROLOGIC BUDGET SUMMARIES FOR SIMULATED LAKES
     (ALL FLUID FLUXES ARE SUMS OF VOLUMES ADDED TO THE LAKE SINCE INITIAL TIME)
     ---------------------------------------------------------------------------
 LAKE       PRECIP       EVAP       RUNOFF
   1     9.5229E+06  8.4557E+06  0.0000E+00
   2     9.5229E+06  8.4557E+06  0.0000E+00

            GROUND WATER            SURFACE WATER
 LAKE    INFLOW     OUTFLOW      INFLOW     OUTFLOW
   1  5.6461E+06  1.5644E+06  9.6674E+07  1.8562E+08
   2  1.2346E+07  1.4259E+06  1.9200E+08  3.2089E+08

         WATER    CONNECTED LAKE   CHANGE       PERCENT
 LAKE     USE         INFLUX       IN VOL.    DISCREPANCY
   1   0.0000E+00   0.0000E+00  -8.3792E+07      0.000
   2   0.0000E+00   0.0000E+00  -1.1689E+08      0.000
 --------------------------------------------------------------------------------

 
 SOLVING FOR HEAD 
     6 ITERATIONS FOR TIME STEP  29 IN STRESS PERIOD    1

 HEAD/DRAWDOWN PRINTOUT FLAG = 0     TOTAL BUDGET PRINTOUT FLAG = 0
 CELL-BY-CELL FLOW TERM FLAG = 1

 OUTPUT FLAGS FOR ALL LAYERS ARE THE SAME:
   HEAD    DRAWDOWN  HEAD  DRAWDOWN
 PRINTOUT  PRINTOUT  SAVE    SAVE
 ----------------------------------
     0         0       0       0



 STREAM LISTING     PERIOD      1   STEP       29

 LAYER ROW COL. STREAM  RCH.  FLOW INTO     FLOW TO   FLOW OUT OF   OVRLND.     DIRECT     STREAM       STREAM     STREAM     STREAM   STREAMBED  STREAMBED
                SEG.NO.  NO.  STRM. RCH.    AQUIFER    STRM. RCH.    RUNOFF     PRECIP       ET          HEAD       DEPTH      WIDTH   CONDCTNC.   GRADIENT

   1    2    5     1     1    6.9120E+05 -6.8522E+04   7.5972E+05  0.000E+00  0.000E+00  0.000E+00  1.25324E+02  1.375E+00  5.000E+00  5.000E+03 -2.741E+01
   1    3    5     1     2    7.5972E+05 -2.8616E+04   7.8834E+05  0.000E+00  0.000E+00  0.000E+00  1.24275E+02  1.430E+00  5.000E+00  5.000E+03 -1.145E+01
   1    4    5     1     3    7.8834E+05 -1.4012E+04   8.0235E+05  0.000E+00  0.000E+00  0.000E+00  1.23195E+02  1.453E+00  5.000E+00  5.000E+03 -5.605E+00
   1    4    6     1     4    8.0235E+05 -1.4965E+04   8.1731E+05  0.000E+00  0.000E+00  0.000E+00  1.22107E+02  1.469E+00  5.000E+00  5.000E+03 -5.986E+00
   1    4    7     1     5    8.1731E+05 -7.9520E+03   8.2527E+05  0.000E+00  0.000E+00  0.000E+00  1.21292E+02  1.482E+00  5.000E+00  2.500E+03 -6.362E+00
   1    4    8     1     6    8.2527E+05 -1.2974E+04   8.3824E+05  0.000E+00  0.000E+00  0.000E+00  1.20614E+02  1.493E+00  5.000E+00  3.750E+03 -6.919E+00
   1    5    8     1     7    8.3824E+05 -1.0929E+04   8.4917E+05  0.000E+00  0.000E+00  0.000E+00  1.19661E+02  1.506E+00  5.000E+00  5.000E+03 -4.372E+00
   1    6    8     1     8    8.4917E+05 -7.7060E+03   8.5688E+05  0.000E+00  0.000E+00  0.000E+00  1.18567E+02  1.516E+00  5.000E+00  5.000E+03 -3.082E+00
   1   12    9     2     1    9.3857E+05 -1.1308E+04   9.4988E+05  0.000E+00  0.000E+00  0.000E+00  1.16200E+02  1.761E+00  5.000E+00  5.000E+03 -4.523E+00
   1   13    9     2     2    9.4988E+05 -1.6135E+04   9.6601E+05  0.000E+00  0.000E+00  0.000E+00  1.15395E+02  1.776E+00  5.000E+00  5.000E+03 -6.454E+00
   1   14   10     2     3    9.6601E+05 -8.7092E+03   9.7472E+05  0.000E+00  0.000E+00  0.000E+00  1.14769E+02  1.790E+00  5.000E+00  2.795E+03 -6.232E+00
   1   14   10     2     4    9.7472E+05 -9.9625E+03   9.8469E+05  0.000E+00  0.000E+00  0.000E+00  1.14321E+02  1.800E+00  5.000E+00  2.795E+03 -7.129E+00
   1   15   10     2     5    9.8469E+05 -1.7216E+04   1.0019E+06  0.000E+00  0.000E+00  0.000E+00  1.13696E+02  1.815E+00  5.000E+00  5.000E+03 -6.886E+00
   1   16   10     2     6    1.0019E+06 -1.2714E+04   1.0146E+06  0.000E+00  0.000E+00  0.000E+00  1.12892E+02  1.831E+00  5.000E+00  5.000E+03 -5.086E+00
   1   22   10     3     1    1.1328E+06 -1.5332E+04   1.1481E+06  0.000E+00  0.000E+00  0.000E+00  1.10845E+02  1.890E+00  5.000E+00  5.000E+03 -6.133E+00
   1   23   10     3     2    1.1481E+06 -1.9044E+04   1.1672E+06  0.000E+00  0.000E+00  0.000E+00  1.10035E+02  1.907E+00  5.000E+00  3.750E+03 -1.016E+01
   1   23   11     3     3    1.1672E+06 -1.2692E+04   1.1798E+06  0.000E+00  0.000E+00  0.000E+00  1.09459E+02  1.922E+00  5.000E+00  2.500E+03 -1.015E+01
   1   23   12     3     4    1.1798E+06 -2.7349E+04   1.2072E+06  0.000E+00  0.000E+00  0.000E+00  1.08769E+02  1.942E+00  5.000E+00  5.000E+03 -1.094E+01
   1   23   13     3     5    1.2072E+06 -3.0137E+04   1.2373E+06  0.000E+00  0.000E+00  0.000E+00  1.07852E+02  1.970E+00  5.000E+00  5.000E+03 -1.205E+01
   1   23   14     3     6    1.2373E+06 -3.4188E+04   1.2715E+06  0.000E+00  0.000E+00  0.000E+00  1.06937E+02  2.001E+00  5.000E+00  5.000E+03 -1.368E+01
   1   23   15     3     7    1.2715E+06 -4.5538E+04   1.3171E+06  0.000E+00  0.000E+00  0.000E+00  1.06029E+02  2.039E+00  5.000E+00  5.000E+03 -1.822E+01
   1   23   16     3     8    1.3171E+06 -8.3453E+04   1.4005E+06  0.000E+00  0.000E+00  0.000E+00  1.05143E+02  2.099E+00  5.000E+00  5.000E+03 -3.338E+01





     0  LAKE CELLS ARE DRY.

 PERIOD     1     TIME STEP    29     TIME STEP LENGTH  5.0388E+00
 PERIOD TIME  1.3639E+02     TOTAL SIMULATION TIME  1.3639E+02


                 HYDROLOGIC BUDGET SUMMARIES FOR SIMULATED LAKES
     (ALL FLUID FLUXES ARE VOLUMES ADDED TO THE LAKE DURING PRESENT TIME STEP)
     -------------------------------------------------------------------------
 LAKE    STAGE         VOLUME     VOL.CHANGE      PRECIP     EVAPORATION        RUNOFF
   1   116.6043     8.2526E+07    7.0168E+04    3.6532E+05    3.2437E+05    0.0000E+00
   2   111.3106     4.9440E+07    8.5752E+04    3.6532E+05    3.2437E+05    0.0000E+00

            GROUND WATER            SURFACE WATER        WATER
 LAKE    INFLOW     OUTFLOW      INFLOW     OUTFLOW       USE
   1  4.4088E+05  0.0000E+00  4.3177E+06  4.7293E+06  0.0000E+00
   2  6.4021E+05  0.0000E+00  5.1125E+06  5.7079E+06  0.0000E+00

      CONNECTED LAKE   TIME-STEP         STAGE-CHANGE          PERCENT
 LAKE    INFLUX      SURFACE AREA   TIME STEP  CUMULATIVE    DISCREPANCY
   1   0.0000E+00     6.2500E+06   1.1226E-02 -1.3396E+01       0.000
   2   0.0000E+00     6.2500E+06   1.3721E-02 -1.8689E+01       0.000
 --------------------------------------------------------------------------------



            CUMULATIVE HYDROLOGIC BUDGET SUMMARIES FOR SIMULATED LAKES
     (ALL FLUID FLUXES ARE SUMS OF VOLUMES ADDED TO THE LAKE SINCE INITIAL TIME)
     ---------------------------------------------------------------------------
 LAKE       PRECIP       EVAP       RUNOFF
   1     9.8882E+06  8.7801E+06  0.0000E+00
   2     9.8882E+06  8.7801E+06  0.0000E+00

            GROUND WATER            SURFACE WATER
 LAKE    INFLOW     OUTFLOW      INFLOW     OUTFLOW
   1  6.0870E+06  1.5644E+06  1.0099E+08  1.9034E+08
   2  1.2986E+07  1.4259E+06  1.9712E+08  3.2659E+08

         WATER    CONNECTED LAKE   CHANGE       PERCENT
 LAKE     USE         INFLUX       IN VOL.    DISCREPANCY
   1   0.0000E+00   0.0000E+00  -8.3722E+07      0.000
   2   0.0000E+00   0.0000E+00  -1.1681E+08      0.000
 --------------------------------------------------------------------------------

 
 SOLVING FOR HEAD 
     6 ITERATIONS FOR TIME STEP  30 IN STRESS PERIOD    1

 HEAD/DRAWDOWN PRINTOUT FLAG = 1     TOTAL BUDGET PRINTOUT FLAG = 1
 CELL-BY-CELL FLOW TERM FLAG = 1

 OUTPUT FLAGS FOR EACH LAYER:
          HEAD    DRAWDOWN  HEAD  DRAWDOWN
 LAYER  PRINTOUT  PRINTOUT  SAVE    SAVE
 -----------------------------------------
    1       0         0       0       0
    2       0         0       0       0
    3       0         0       0       0
    4       0         0       0       0
    5       1         0       0       0



 STREAM LISTING     PERIOD      1   STEP       30

 LAYER ROW COL. STREAM  RCH.  FLOW INTO     FLOW TO   FLOW OUT OF   OVRLND.     DIRECT     STREAM       STREAM     STREAM     STREAM   STREAMBED  STREAMBED
                SEG.NO.  NO.  STRM. RCH.    AQUIFER    STRM. RCH.    RUNOFF     PRECIP       ET          HEAD       DEPTH      WIDTH   CONDCTNC.   GRADIENT

   1    2    5     1     1    6.9120E+05 -6.9238E+04   7.6044E+05  0.000E+00  0.000E+00  0.000E+00  1.25324E+02  1.376E+00  5.000E+00  5.000E+03 -2.770E+01
   1    3    5     1     2    7.6044E+05 -2.9932E+04   7.9037E+05  0.000E+00  0.000E+00  0.000E+00  1.24276E+02  1.431E+00  5.000E+00  5.000E+03 -1.197E+01
   1    4    5     1     3    7.9037E+05 -1.5238E+04   8.0561E+05  0.000E+00  0.000E+00  0.000E+00  1.23198E+02  1.456E+00  5.000E+00  5.000E+03 -6.095E+00
   1    4    6     1     4    8.0561E+05 -1.5913E+04   8.2152E+05  0.000E+00  0.000E+00  0.000E+00  1.22111E+02  1.473E+00  5.000E+00  5.000E+03 -6.365E+00
   1    4    7     1     5    8.2152E+05 -8.4077E+03   8.2993E+05  0.000E+00  0.000E+00  0.000E+00  1.21297E+02  1.486E+00  5.000E+00  2.500E+03 -6.726E+00
   1    4    8     1     6    8.2993E+05 -1.3706E+04   8.4363E+05  0.000E+00  0.000E+00  0.000E+00  1.20619E+02  1.498E+00  5.000E+00  3.750E+03 -7.310E+00
   1    5    8     1     7    8.4363E+05 -1.1520E+04   8.5515E+05  0.000E+00  0.000E+00  0.000E+00  1.19667E+02  1.512E+00  5.000E+00  5.000E+03 -4.608E+00
   1    6    8     1     8    8.5515E+05 -8.0381E+03   8.6319E+05  0.000E+00  0.000E+00  0.000E+00  1.18574E+02  1.522E+00  5.000E+00  5.000E+03 -3.215E+00
   1   12    9     2     1    9.4838E+05 -1.1530E+04   9.5991E+05  0.000E+00  0.000E+00  0.000E+00  1.16211E+02  1.772E+00  5.000E+00  5.000E+03 -4.612E+00
   1   13    9     2     2    9.5991E+05 -1.6493E+04   9.7640E+05  0.000E+00  0.000E+00  0.000E+00  1.15406E+02  1.787E+00  5.000E+00  5.000E+03 -6.597E+00
   1   14   10     2     3    9.7640E+05 -8.9067E+03   9.8531E+05  0.000E+00  0.000E+00  0.000E+00  1.14781E+02  1.801E+00  5.000E+00  2.795E+03 -6.373E+00
   1   14   10     2     4    9.8531E+05 -1.0160E+04   9.9547E+05  0.000E+00  0.000E+00  0.000E+00  1.14332E+02  1.812E+00  5.000E+00  2.795E+03 -7.270E+00
   1   15   10     2     5    9.9547E+05 -1.7513E+04   1.0130E+06  0.000E+00  0.000E+00  0.000E+00  1.13708E+02  1.827E+00  5.000E+00  5.000E+03 -7.005E+00
   1   16   10     2     6    1.0130E+06 -1.2877E+04   1.0259E+06  0.000E+00  0.000E+00  0.000E+00  1.12904E+02  1.843E+00  5.000E+00  5.000E+03 -5.151E+00
   1   22   10     3     1    1.1463E+06 -1.5434E+04   1.1618E+06  0.000E+00  0.000E+00  0.000E+00  1.10859E+02  1.903E+00  5.000E+00  5.000E+03 -6.173E+00
   1   23   10     3     2    1.1618E+06 -1.9360E+04   1.1811E+06  0.000E+00  0.000E+00  0.000E+00  1.10048E+02  1.920E+00  5.000E+00  3.750E+03 -1.033E+01
   1   23   11     3     3    1.1811E+06 -1.2865E+04   1.1940E+06  0.000E+00  0.000E+00  0.000E+00  1.09473E+02  1.936E+00  5.000E+00  2.500E+03 -1.029E+01
   1   23   12     3     4    1.1940E+06 -2.7673E+04   1.2217E+06  0.000E+00  0.000E+00  0.000E+00  1.08783E+02  1.956E+00  5.000E+00  5.000E+03 -1.107E+01
   1   23   13     3     5    1.2217E+06 -3.0523E+04   1.2522E+06  0.000E+00  0.000E+00  0.000E+00  1.07866E+02  1.984E+00  5.000E+00  5.000E+03 -1.221E+01
   1   23   14     3     6    1.2522E+06 -3.4678E+04   1.2869E+06  0.000E+00  0.000E+00  0.000E+00  1.06951E+02  2.015E+00  5.000E+00  5.000E+03 -1.387E+01
   1   23   15     3     7    1.2869E+06 -4.6118E+04   1.3330E+06  0.000E+00  0.000E+00  0.000E+00  1.06043E+02  2.053E+00  5.000E+00  5.000E+03 -1.845E+01
   1   23   16     3     8    1.3330E+06 -8.3798E+04   1.4168E+06  0.000E+00  0.000E+00  0.000E+00  1.05158E+02  2.114E+00  5.000E+00  5.000E+03 -3.352E+01





     0  LAKE CELLS ARE DRY.

 PERIOD     1     TIME STEP    30     TIME STEP LENGTH  5.0640E+00
 PERIOD TIME  1.4145E+02     TOTAL SIMULATION TIME  1.4145E+02


                 HYDROLOGIC BUDGET SUMMARIES FOR SIMULATED LAKES
     (ALL FLUID FLUXES ARE VOLUMES ADDED TO THE LAKE DURING PRESENT TIME STEP)
     -------------------------------------------------------------------------
 LAKE    STAGE         VOLUME     VOL.CHANGE      PRECIP     EVAPORATION        RUNOFF
   1   116.6152     8.2594E+07    6.8192E+04    3.6714E+05    3.2600E+05    0.0000E+00
   2   111.3241     4.9525E+07    8.4596E+04    3.6714E+05    3.2600E+05    0.0000E+00

            GROUND WATER            SURFACE WATER        WATER
 LAKE    INFLOW     OUTFLOW      INFLOW     OUTFLOW       USE
   1  4.5842E+05  0.0000E+00  4.3712E+06  4.8026E+06  0.0000E+00
   2  6.5349E+05  0.0000E+00  5.1950E+06  5.8050E+06  0.0000E+00

      CONNECTED LAKE   TIME-STEP         STAGE-CHANGE          PERCENT
 LAKE    INFLUX      SURFACE AREA   TIME STEP  CUMULATIVE    DISCREPANCY
   1   0.0000E+00     6.2500E+06   1.0910E-02 -1.3385E+01       0.000
   2   0.0000E+00     6.2500E+06   1.3535E-02 -1.8676E+01       0.000
 --------------------------------------------------------------------------------



            CUMULATIVE HYDROLOGIC BUDGET SUMMARIES FOR SIMULATED LAKES
     (ALL FLUID FLUXES ARE SUMS OF VOLUMES ADDED TO THE LAKE SINCE INITIAL TIME)
     ---------------------------------------------------------------------------
 LAKE       PRECIP       EVAP       RUNOFF
   1     1.0255E+07  9.1061E+06  0.0000E+00
   2     1.0255E+07  9.1061E+06  0.0000E+00

            GROUND WATER            SURFACE WATER
 LAKE    INFLOW     OUTFLOW      INFLOW     OUTFLOW
   1  6.5454E+06  1.5644E+06  1.0536E+08  1.9515E+08
   2  1.3640E+07  1.4259E+06  2.0231E+08  3.3240E+08

         WATER    CONNECTED LAKE   CHANGE       PERCENT
 LAKE     USE         INFLUX       IN VOL.    DISCREPANCY
   1   0.0000E+00   0.0000E+00  -8.3654E+07      0.000
   2   0.0000E+00   0.0000E+00  -1.1672E+08      0.000
 --------------------------------------------------------------------------------

1
              HEAD IN LAYER   5 AT END OF TIME STEP  30 IN STRESS PERIOD    1
  ---------------------------------------------------------------------------

          1      2      3      4      5      6      7      8      9     10
 .........................................................................
   1   160.0  158.9  157.3  155.8  154.2  152.7  151.5  150.8  150.0  149.2
   2   160.0  156.4  151.5  147.1  139.2  143.5  143.5  143.1  142.6  142.1
   3   160.0  153.4  144.1  137.1  130.3  132.7  132.8  132.6  132.5  132.3
   4   160.0  151.7  139.5  131.3  126.3  125.3  124.7  124.3  125.7  126.1
   5   160.0  150.9  137.4  128.9  125.4  124.2  123.2  122.0  123.1  123.5
   6   160.0  150.7  136.8  128.0  124.6  123.0  121.3  120.2  120.9  121.3
   7   160.0  150.6  136.6  127.8  124.2  121.8  116.9  116.7  116.7  116.8
   8   160.0  150.6  136.6  127.7  124.1  121.5  116.8  116.6  116.6  116.6
   9   160.0  150.6  136.5  127.7  124.0  121.4  116.8  116.6  116.6  116.6
  10   160.0  150.6  136.5  127.7  124.0  121.4  116.8  116.6  116.6  116.6
  11   160.0  150.6  136.5  127.7  124.0  121.7  116.9  116.7  116.7  116.7
  12   160.0  150.6  136.5  127.7  124.2  122.6  120.9  119.9  118.5  119.9
  13   160.0  150.6  136.5  127.7  124.3  123.0  121.9  120.8  118.7  120.3
  14   160.0  150.6  136.5  127.7  124.3  123.1  122.2  121.3  120.0  118.0
  15   160.0  150.6  136.5  127.7  124.1  122.7  121.6  120.7  119.3  117.2
  16   160.0  150.6  136.5  127.6  123.8  121.5  119.0  117.9  116.9  115.5
  17   160.0  150.6  136.5  127.5  123.4  119.5  111.8  111.5  111.5  111.5
  18   160.0  150.6  136.5  127.5  123.2  119.0  111.6  111.3  111.3  111.3
  19   160.0  150.6  136.5  127.5  123.2  118.8  111.6  111.3  111.3  111.3
  20   160.0  150.6  136.5  127.5  123.2  119.0  111.6  111.3  111.3  111.3
  21   160.0  150.6  136.6  127.6  123.5  119.6  111.8  111.5  111.5  111.4
  22   160.0  150.6  136.7  127.8  124.0  121.6  119.0  117.7  116.2  114.0
  23   160.0  150.9  137.4  128.7  125.1  123.6  122.3  121.1  119.0  115.2
  24   160.0  151.6  139.4  131.4  128.0  126.7  126.0  125.4  124.7  124.0
  25   160.0  153.4  144.3  138.1  135.1  133.7  133.0  132.6  132.1  131.7
  26   160.0  156.4  151.8  148.5  146.4  144.9  143.9  143.3  142.6  142.0
  27   160.0  158.9  157.3  155.8  154.2  152.7  151.5  150.8  150.0  149.2
1
              HEAD IN LAYER   5 AT END OF TIME STEP  30 IN STRESS PERIOD    1
  ---------------------------------------------------------------------------

         11     12     13     14     15     16     17
 ....................................................
   1   148.5  147.3  145.8  144.2  142.7  141.1  140.0
   2   141.5  140.6  139.5  138.6  138.3  139.0  140.0
   3   132.0  131.6  131.3  131.5  133.1  136.7  140.0
   4   126.2  126.2  126.3  127.4  130.3  135.6  140.0
   5   123.7  123.9  124.4  125.7  129.2  135.1  140.0
   6   121.7  122.8  123.7  125.2  128.9  135.0  140.0
   7   116.9  121.6  123.4  125.1  128.8  135.0  140.0
   8   116.8  121.3  123.3  125.1  128.8  135.0  140.0
   9   116.8  121.2  123.3  125.1  128.8  134.9  140.0
  10   116.8  121.3  123.3  125.1  128.8  134.9  140.0
  11   116.9  121.5  123.4  125.1  128.8  134.9  140.0
  12   120.8  122.4  123.5  125.1  128.8  134.9  140.0
  13   121.5  122.7  123.6  125.1  128.8  134.9  140.0
  14   120.4  122.3  123.5  125.1  128.8  134.9  140.0
  15   119.6  121.9  123.3  125.0  128.8  134.9  140.0
  16   117.6  120.8  123.0  124.9  128.8  134.9  140.0
  17   111.7  119.2  122.6  124.8  128.7  134.9  140.0
  18   111.6  118.7  122.4  124.7  128.6  134.8  140.0
  19   111.5  118.5  122.2  124.5  128.4  134.7  140.0
  20   111.5  118.4  121.9  124.1  128.0  134.4  140.0
  21   111.7  118.3  121.4  123.3  127.1  133.9  140.0
  22   115.8  118.4  119.9  121.3  124.7  132.0  140.0
  23   114.6  114.3  114.0  113.9  115.3  122.0  140.0
  24   123.5  123.1  123.0  123.6  126.3  132.6  140.0
  25   131.3  130.8  130.4  130.6  132.1  136.0  140.0
  26   141.3  140.4  139.3  138.4  138.1  138.9  140.0
  27   148.5  147.3  145.8  144.2  142.7  141.1  140.0
1
  VOLUMETRIC BUDGET FOR ENTIRE MODEL AT END OF TIME STEP 30 IN STRESS PERIOD   1
  ------------------------------------------------------------------------------

     CUMULATIVE VOLUMES      L**3       RATES FOR THIS TIME STEP      L**3/T
     ------------------                 ------------------------

           IN:                                      IN:
           ---                                      ---
             STORAGE =     2934567.7500               STORAGE =           0.0000
       CONSTANT HEAD =   438410464.0000         CONSTANT HEAD =     1634999.1250
                  ET =           0.0000                    ET =           0.0000
            RECHARGE =   389704576.0000              RECHARGE =     2755000.0000
     SPECIFIED FLOWS =           0.0000       SPECIFIED FLOWS =           0.0000
      STREAM LEAKAGE =     3694574.2500        STREAM LEAKAGE =           0.0000
       LAKE  SEEPAGE =     2990331.7500         LAKE  SEEPAGE =           0.0000

            TOTAL IN =   837734528.0000              TOTAL IN =     4389999.0000

          OUT:                                     OUT:
          ----                                     ----
             STORAGE =   739345088.0000               STORAGE =     3156431.2500
       CONSTANT HEAD =           0.0000         CONSTANT HEAD =           0.0000
                  ET =    27192878.0000                    ET =      494059.9062
            RECHARGE =           0.0000              RECHARGE =           0.0000
     SPECIFIED FLOWS =           0.0000       SPECIFIED FLOWS =           0.0000
      STREAM LEAKAGE =    51010188.0000        STREAM LEAKAGE =      519922.1875
       LAKE  SEEPAGE =    20185284.0000         LAKE  SEEPAGE =      219570.0781

           TOTAL OUT =   837733440.0000             TOTAL OUT =     4389983.5000

            IN - OUT =        1088.0000              IN - OUT =          15.5000

 PERCENT DISCREPANCY =           0.00     PERCENT DISCREPANCY =           0.00






          TIME SUMMARY AT END OF TIME STEP  30 IN STRESS PERIOD    1
                    SECONDS     MINUTES      HOURS       DAYS        YEARS
                    -----------------------------------------------------------
   TIME STEP LENGTH 4.37532E+05  7292.2      121.54      5.0640     1.38645E-02
 STRESS PERIOD TIME 1.22216E+07 2.03693E+05  3394.9      141.45     0.38728    
         TOTAL TIME 1.22216E+07 2.03693E+05  3394.9      141.45     0.38728    
1
 
 SOLVING FOR HEAD 
     6 ITERATIONS FOR TIME STEP  31 IN STRESS PERIOD    1

 HEAD/DRAWDOWN PRINTOUT FLAG = 0     TOTAL BUDGET PRINTOUT FLAG = 0
 CELL-BY-CELL FLOW TERM FLAG = 1

 OUTPUT FLAGS FOR ALL LAYERS ARE THE SAME:
   HEAD    DRAWDOWN  HEAD  DRAWDOWN
 PRINTOUT  PRINTOUT  SAVE    SAVE
 ----------------------------------
     0         0       0       0



 STREAM LISTING     PERIOD      1   STEP       31

 LAYER ROW COL. STREAM  RCH.  FLOW INTO     FLOW TO   FLOW OUT OF   OVRLND.     DIRECT     STREAM       STREAM     STREAM     STREAM   STREAMBED  STREAMBED
                SEG.NO.  NO.  STRM. RCH.    AQUIFER    STRM. RCH.    RUNOFF     PRECIP       ET          HEAD       DEPTH      WIDTH   CONDCTNC.   GRADIENT

   1    2    5     1     1    6.9120E+05 -6.9903E+04   7.6110E+05  0.000E+00  0.000E+00  0.000E+00  1.25324E+02  1.376E+00  5.000E+00  5.000E+03 -2.796E+01
   1    3    5     1     2    7.6110E+05 -3.1193E+04   7.9230E+05  0.000E+00  0.000E+00  0.000E+00  1.24278E+02  1.433E+00  5.000E+00  5.000E+03 -1.248E+01
   1    4    5     1     3    7.9230E+05 -1.6446E+04   8.0874E+05  0.000E+00  0.000E+00  0.000E+00  1.23200E+02  1.459E+00  5.000E+00  5.000E+03 -6.578E+00
   1    4    6     1     4    8.0874E+05 -1.6833E+04   8.2558E+05  0.000E+00  0.000E+00  0.000E+00  1.22115E+02  1.477E+00  5.000E+00  5.000E+03 -6.733E+00
   1    4    7     1     5    8.2558E+05 -8.8512E+03   8.3443E+05  0.000E+00  0.000E+00  0.000E+00  1.21301E+02  1.491E+00  5.000E+00  2.500E+03 -7.081E+00
   1    4    8     1     6    8.3443E+05 -1.4423E+04   8.4885E+05  0.000E+00  0.000E+00  0.000E+00  1.20624E+02  1.504E+00  5.000E+00  3.750E+03 -7.692E+00
   1    5    8     1     7    8.4885E+05 -1.2106E+04   8.6096E+05  0.000E+00  0.000E+00  0.000E+00  1.19673E+02  1.518E+00  5.000E+00  5.000E+03 -4.842E+00
   1    6    8     1     8    8.6096E+05 -8.3675E+03   8.6932E+05  0.000E+00  0.000E+00  0.000E+00  1.18580E+02  1.529E+00  5.000E+00  5.000E+03 -3.347E+00
   1   12    9     2     1    9.5794E+05 -1.1751E+04   9.6970E+05  0.000E+00  0.000E+00  0.000E+00  1.16222E+02  1.782E+00  5.000E+00  5.000E+03 -4.701E+00
   1   13    9     2     2    9.6970E+05 -1.6850E+04   9.8655E+05  0.000E+00  0.000E+00  0.000E+00  1.15417E+02  1.798E+00  5.000E+00  5.000E+03 -6.740E+00
   1   14   10     2     3    9.8655E+05 -9.1039E+03   9.9565E+05  0.000E+00  0.000E+00  0.000E+00  1.14792E+02  1.813E+00  5.000E+00  2.795E+03 -6.514E+00
   1   14   10     2     4    9.9565E+05 -1.0356E+04   1.0060E+06  0.000E+00  0.000E+00  0.000E+00  1.14344E+02  1.823E+00  5.000E+00  2.795E+03 -7.411E+00
   1   15   10     2     5    1.0060E+06 -1.7812E+04   1.0238E+06  0.000E+00  0.000E+00  0.000E+00  1.13720E+02  1.839E+00  5.000E+00  5.000E+03 -7.125E+00
   1   16   10     2     6    1.0238E+06 -1.3044E+04   1.0369E+06  0.000E+00  0.000E+00  0.000E+00  1.12916E+02  1.855E+00  5.000E+00  5.000E+03 -5.218E+00
   1   22   10     3     1    1.1598E+06 -1.5544E+04   1.1753E+06  0.000E+00  0.000E+00  0.000E+00  1.10872E+02  1.916E+00  5.000E+00  5.000E+03 -6.218E+00
   1   23   10     3     2    1.1753E+06 -1.9686E+04   1.1950E+06  0.000E+00  0.000E+00  0.000E+00  1.10062E+02  1.934E+00  5.000E+00  3.750E+03 -1.050E+01
   1   23   11     3     3    1.1950E+06 -1.3045E+04   1.2080E+06  0.000E+00  0.000E+00  0.000E+00  1.09487E+02  1.950E+00  5.000E+00  2.500E+03 -1.044E+01
   1   23   12     3     4    1.2080E+06 -2.8010E+04   1.2361E+06  0.000E+00  0.000E+00  0.000E+00  1.08797E+02  1.970E+00  5.000E+00  5.000E+03 -1.120E+01
   1   23   13     3     5    1.2361E+06 -3.0922E+04   1.2670E+06  0.000E+00  0.000E+00  0.000E+00  1.07880E+02  1.998E+00  5.000E+00  5.000E+03 -1.237E+01
   1   23   14     3     6    1.2670E+06 -3.5178E+04   1.3022E+06  0.000E+00  0.000E+00  0.000E+00  1.06965E+02  2.029E+00  5.000E+00  5.000E+03 -1.407E+01
   1   23   15     3     7    1.3022E+06 -4.6691E+04   1.3488E+06  0.000E+00  0.000E+00  0.000E+00  1.06058E+02  2.068E+00  5.000E+00  5.000E+03 -1.868E+01
   1   23   16     3     8    1.3488E+06 -8.4124E+04   1.4330E+06  0.000E+00  0.000E+00  0.000E+00  1.05173E+02  2.129E+00  5.000E+00  5.000E+03 -3.365E+01





     0  LAKE CELLS ARE DRY.

 PERIOD     1     TIME STEP    31     TIME STEP LENGTH  5.0893E+00
 PERIOD TIME  1.4654E+02     TOTAL SIMULATION TIME  1.4654E+02


                 HYDROLOGIC BUDGET SUMMARIES FOR SIMULATED LAKES
     (ALL FLUID FLUXES ARE VOLUMES ADDED TO THE LAKE DURING PRESENT TIME STEP)
     -------------------------------------------------------------------------
 LAKE    STAGE         VOLUME     VOL.CHANGE      PRECIP     EVAPORATION        RUNOFF
   1   116.6259     8.2661E+07    6.6536E+04    3.6898E+05    3.2763E+05    0.0000E+00
   2   111.3374     4.9608E+07    8.3020E+04    3.6898E+05    3.2763E+05    0.0000E+00

            GROUND WATER            SURFACE WATER        WATER
 LAKE    INFLOW     OUTFLOW      INFLOW     OUTFLOW       USE
   1  4.7622E+05  0.0000E+00  4.4243E+06  4.8753E+06  0.0000E+00
   2  6.6719E+05  0.0000E+00  5.2769E+06  5.9025E+06  0.0000E+00

      CONNECTED LAKE   TIME-STEP         STAGE-CHANGE          PERCENT
 LAKE    INFLUX      SURFACE AREA   TIME STEP  CUMULATIVE    DISCREPANCY
   1   0.0000E+00     6.2500E+06   1.0646E-02 -1.3374E+01       0.000
   2   0.0000E+00     6.2500E+06   1.3284E-02 -1.8663E+01       0.000
 --------------------------------------------------------------------------------



            CUMULATIVE HYDROLOGIC BUDGET SUMMARIES FOR SIMULATED LAKES
     (ALL FLUID FLUXES ARE SUMS OF VOLUMES ADDED TO THE LAKE SINCE INITIAL TIME)
     ---------------------------------------------------------------------------
 LAKE       PRECIP       EVAP       RUNOFF
   1     1.0624E+07  9.4337E+06  0.0000E+00
   2     1.0624E+07  9.4337E+06  0.0000E+00

            GROUND WATER            SURFACE WATER
 LAKE    INFLOW     OUTFLOW      INFLOW     OUTFLOW
   1  7.0216E+06  1.5644E+06  1.0979E+08  2.0002E+08
   2  1.4307E+07  1.4259E+06  2.0759E+08  3.3830E+08

         WATER    CONNECTED LAKE   CHANGE       PERCENT
 LAKE     USE         INFLUX       IN VOL.    DISCREPANCY
   1   0.0000E+00   0.0000E+00  -8.3588E+07      0.000
   2   0.0000E+00   0.0000E+00  -1.1664E+08      0.000
 --------------------------------------------------------------------------------

 
 SOLVING FOR HEAD 
     6 ITERATIONS FOR TIME STEP  32 IN STRESS PERIOD    1

 HEAD/DRAWDOWN PRINTOUT FLAG = 0     TOTAL BUDGET PRINTOUT FLAG = 0
 CELL-BY-CELL FLOW TERM FLAG = 1

 OUTPUT FLAGS FOR ALL LAYERS ARE THE SAME:
   HEAD    DRAWDOWN  HEAD  DRAWDOWN
 PRINTOUT  PRINTOUT  SAVE    SAVE
 ----------------------------------
     0         0       0       0



 STREAM LISTING     PERIOD      1   STEP       32

 LAYER ROW COL. STREAM  RCH.  FLOW INTO     FLOW TO   FLOW OUT OF   OVRLND.     DIRECT     STREAM       STREAM     STREAM     STREAM   STREAMBED  STREAMBED
                SEG.NO.  NO.  STRM. RCH.    AQUIFER    STRM. RCH.    RUNOFF     PRECIP       ET          HEAD       DEPTH      WIDTH   CONDCTNC.   GRADIENT

   1    2    5     1     1    6.9120E+05 -7.0514E+04   7.6171E+05  0.000E+00  0.000E+00  0.000E+00  1.25325E+02  1.377E+00  5.000E+00  5.000E+03 -2.821E+01
   1    3    5     1     2    7.6171E+05 -3.2402E+04   7.9412E+05  0.000E+00  0.000E+00  0.000E+00  1.24279E+02  1.434E+00  5.000E+00  5.000E+03 -1.296E+01
   1    4    5     1     3    7.9412E+05 -1.7636E+04   8.1175E+05  0.000E+00  0.000E+00  0.000E+00  1.23203E+02  1.462E+00  5.000E+00  5.000E+03 -7.054E+00
   1    4    6     1     4    8.1175E+05 -1.7726E+04   8.2948E+05  0.000E+00  0.000E+00  0.000E+00  1.22119E+02  1.481E+00  5.000E+00  5.000E+03 -7.090E+00
   1    4    7     1     5    8.2948E+05 -9.2826E+03   8.3876E+05  0.000E+00  0.000E+00  0.000E+00  1.21306E+02  1.496E+00  5.000E+00  2.500E+03 -7.426E+00
   1    4    8     1     6    8.3876E+05 -1.5126E+04   8.5389E+05  0.000E+00  0.000E+00  0.000E+00  1.20629E+02  1.509E+00  5.000E+00  3.750E+03 -8.067E+00
   1    5    8     1     7    8.5389E+05 -1.2685E+04   8.6657E+05  0.000E+00  0.000E+00  0.000E+00  1.19679E+02  1.523E+00  5.000E+00  5.000E+03 -5.074E+00
   1    6    8     1     8    8.6657E+05 -8.6946E+03   8.7527E+05  0.000E+00  0.000E+00  0.000E+00  1.18586E+02  1.535E+00  5.000E+00  5.000E+03 -3.478E+00
   1   12    9     2     1    9.6730E+05 -1.1972E+04   9.7927E+05  0.000E+00  0.000E+00  0.000E+00  1.16233E+02  1.793E+00  5.000E+00  5.000E+03 -4.789E+00
   1   13    9     2     2    9.7927E+05 -1.7205E+04   9.9648E+05  0.000E+00  0.000E+00  0.000E+00  1.15428E+02  1.809E+00  5.000E+00  5.000E+03 -6.882E+00
   1   14   10     2     3    9.9648E+05 -9.3008E+03   1.0058E+06  0.000E+00  0.000E+00  0.000E+00  1.14803E+02  1.824E+00  5.000E+00  2.795E+03 -6.655E+00
   1   14   10     2     4    1.0058E+06 -1.0553E+04   1.0163E+06  0.000E+00  0.000E+00  0.000E+00  1.14355E+02  1.834E+00  5.000E+00  2.795E+03 -7.551E+00
   1   15   10     2     5    1.0163E+06 -1.8112E+04   1.0344E+06  0.000E+00  0.000E+00  0.000E+00  1.13731E+02  1.850E+00  5.000E+00  5.000E+03 -7.245E+00
   1   16   10     2     6    1.0344E+06 -1.3214E+04   1.0477E+06  0.000E+00  0.000E+00  0.000E+00  1.12927E+02  1.867E+00  5.000E+00  5.000E+03 -5.286E+00
   1   22   10     3     1    1.1730E+06 -1.5662E+04   1.1887E+06  0.000E+00  0.000E+00  0.000E+00  1.10885E+02  1.929E+00  5.000E+00  5.000E+03 -6.265E+00
   1   23   10     3     2    1.1887E+06 -2.0020E+04   1.2087E+06  0.000E+00  0.000E+00  0.000E+00  1.10075E+02  1.947E+00  5.000E+00  3.750E+03 -1.068E+01
   1   23   11     3     3    1.2087E+06 -1.3230E+04   1.2220E+06  0.000E+00  0.000E+00  0.000E+00  1.09500E+02  1.963E+00  5.000E+00  2.500E+03 -1.058E+01
   1   23   12     3     4    1.2220E+06 -2.8360E+04   1.2503E+06  0.000E+00  0.000E+00  0.000E+00  1.08811E+02  1.983E+00  5.000E+00  5.000E+03 -1.134E+01
   1   23   13     3     5    1.2503E+06 -3.1332E+04   1.2817E+06  0.000E+00  0.000E+00  0.000E+00  1.07894E+02  2.012E+00  5.000E+00  5.000E+03 -1.253E+01
   1   23   14     3     6    1.2817E+06 -3.5685E+04   1.3173E+06  0.000E+00  0.000E+00  0.000E+00  1.06979E+02  2.044E+00  5.000E+00  5.000E+03 -1.427E+01
   1   23   15     3     7    1.3173E+06 -4.7255E+04   1.3646E+06  0.000E+00  0.000E+00  0.000E+00  1.06073E+02  2.082E+00  5.000E+00  5.000E+03 -1.890E+01
   1   23   16     3     8    1.3646E+06 -8.4432E+04   1.4490E+06  0.000E+00  0.000E+00  0.000E+00  1.05187E+02  2.143E+00  5.000E+00  5.000E+03 -3.377E+01





     0  LAKE CELLS ARE DRY.

 PERIOD     1     TIME STEP    32     TIME STEP LENGTH  5.1148E+00
 PERIOD TIME  1.5166E+02     TOTAL SIMULATION TIME  1.5166E+02


                 HYDROLOGIC BUDGET SUMMARIES FOR SIMULATED LAKES
     (ALL FLUID FLUXES ARE VOLUMES ADDED TO THE LAKE DURING PRESENT TIME STEP)
     -------------------------------------------------------------------------
 LAKE    STAGE         VOLUME     VOL.CHANGE      PRECIP     EVAPORATION        RUNOFF
   1   116.6363     8.2726E+07    6.5096E+04    3.7082E+05    3.2926E+05    0.0000E+00
   2   111.3504     4.9689E+07    8.1488E+04    3.7082E+05    3.2926E+05    0.0000E+00

            GROUND WATER            SURFACE WATER        WATER
 LAKE    INFLOW     OUTFLOW      INFLOW     OUTFLOW       USE
   1  4.9429E+05  0.0000E+00  4.4768E+06  4.9476E+06  0.0000E+00
   2  6.8126E+05  0.0000E+00  5.3586E+06  5.9999E+06  0.0000E+00

      CONNECTED LAKE   TIME-STEP         STAGE-CHANGE          PERCENT
 LAKE    INFLUX      SURFACE AREA   TIME STEP  CUMULATIVE    DISCREPANCY
   1   0.0000E+00     6.2500E+06   1.0414E-02 -1.3364E+01       0.000
   2   0.0000E+00     6.2500E+06   1.3038E-02 -1.8650E+01       0.000
 --------------------------------------------------------------------------------



            CUMULATIVE HYDROLOGIC BUDGET SUMMARIES FOR SIMULATED LAKES
     (ALL FLUID FLUXES ARE SUMS OF VOLUMES ADDED TO THE LAKE SINCE INITIAL TIME)
     ---------------------------------------------------------------------------
 LAKE       PRECIP       EVAP       RUNOFF
   1     1.0995E+07  9.7630E+06  0.0000E+00
   2     1.0995E+07  9.7630E+06  0.0000E+00

            GROUND WATER            SURFACE WATER
 LAKE    INFLOW     OUTFLOW      INFLOW     OUTFLOW
   1  7.5159E+06  1.5644E+06  1.1426E+08  2.0497E+08
   2  1.4988E+07  1.4259E+06  2.1295E+08  3.4430E+08

         WATER    CONNECTED LAKE   CHANGE       PERCENT
 LAKE     USE         INFLUX       IN VOL.    DISCREPANCY
   1   0.0000E+00   0.0000E+00  -8.3522E+07      0.000
   2   0.0000E+00   0.0000E+00  -1.1656E+08      0.000
 --------------------------------------------------------------------------------

 
 SOLVING FOR HEAD 
     6 ITERATIONS FOR TIME STEP  33 IN STRESS PERIOD    1

 HEAD/DRAWDOWN PRINTOUT FLAG = 0     TOTAL BUDGET PRINTOUT FLAG = 0
 CELL-BY-CELL FLOW TERM FLAG = 1

 OUTPUT FLAGS FOR ALL LAYERS ARE THE SAME:
   HEAD    DRAWDOWN  HEAD  DRAWDOWN
 PRINTOUT  PRINTOUT  SAVE    SAVE
 ----------------------------------
     0         0       0       0



 STREAM LISTING     PERIOD      1   STEP       33

 LAYER ROW COL. STREAM  RCH.  FLOW INTO     FLOW TO   FLOW OUT OF   OVRLND.     DIRECT     STREAM       STREAM     STREAM     STREAM   STREAMBED  STREAMBED
                SEG.NO.  NO.  STRM. RCH.    AQUIFER    STRM. RCH.    RUNOFF     PRECIP       ET          HEAD       DEPTH      WIDTH   CONDCTNC.   GRADIENT

   1    2    5     1     1    6.9120E+05 -7.1077E+04   7.6228E+05  0.000E+00  0.000E+00  0.000E+00  1.25325E+02  1.377E+00  5.000E+00  5.000E+03 -2.843E+01
   1    3    5     1     2    7.6228E+05 -3.3558E+04   7.9584E+05  0.000E+00  0.000E+00  0.000E+00  1.24280E+02  1.435E+00  5.000E+00  5.000E+03 -1.342E+01
   1    4    5     1     3    7.9584E+05 -1.8808E+04   8.1464E+05  0.000E+00  0.000E+00  0.000E+00  1.23206E+02  1.464E+00  5.000E+00  5.000E+03 -7.523E+00
   1    4    6     1     4    8.1464E+05 -1.8594E+04   8.3324E+05  0.000E+00  0.000E+00  0.000E+00  1.22122E+02  1.485E+00  5.000E+00  5.000E+03 -7.437E+00
   1    4    7     1     5    8.3324E+05 -9.7022E+03   8.4294E+05  0.000E+00  0.000E+00  0.000E+00  1.21310E+02  1.500E+00  5.000E+00  2.500E+03 -7.762E+00
   1    4    8     1     6    8.4294E+05 -1.5813E+04   8.5875E+05  0.000E+00  0.000E+00  0.000E+00  1.20634E+02  1.513E+00  5.000E+00  3.750E+03 -8.434E+00
   1    5    8     1     7    8.5875E+05 -1.3258E+04   8.7201E+05  0.000E+00  0.000E+00  0.000E+00  1.19684E+02  1.529E+00  5.000E+00  5.000E+03 -5.303E+00
   1    6    8     1     8    8.7201E+05 -9.0195E+03   8.8103E+05  0.000E+00  0.000E+00  0.000E+00  1.18592E+02  1.541E+00  5.000E+00  5.000E+03 -3.608E+00
   1   12    9     2     1    9.7648E+05 -1.2191E+04   9.8867E+05  0.000E+00  0.000E+00  0.000E+00  1.16243E+02  1.803E+00  5.000E+00  5.000E+03 -4.876E+00
   1   13    9     2     2    9.8867E+05 -1.7559E+04   1.0062E+06  0.000E+00  0.000E+00  0.000E+00  1.15439E+02  1.820E+00  5.000E+00  5.000E+03 -7.023E+00
   1   14   10     2     3    1.0062E+06 -9.4973E+03   1.0157E+06  0.000E+00  0.000E+00  0.000E+00  1.14814E+02  1.834E+00  5.000E+00  2.795E+03 -6.796E+00
   1   14   10     2     4    1.0157E+06 -1.0749E+04   1.0265E+06  0.000E+00  0.000E+00  0.000E+00  1.14366E+02  1.845E+00  5.000E+00  2.795E+03 -7.691E+00
   1   15   10     2     5    1.0265E+06 -1.8412E+04   1.0449E+06  0.000E+00  0.000E+00  0.000E+00  1.13742E+02  1.861E+00  5.000E+00  5.000E+03 -7.365E+00
   1   16   10     2     6    1.0449E+06 -1.3387E+04   1.0583E+06  0.000E+00  0.000E+00  0.000E+00  1.12938E+02  1.878E+00  5.000E+00  5.000E+03 -5.355E+00
   1   22   10     3     1    1.1861E+06 -1.5788E+04   1.2019E+06  0.000E+00  0.000E+00  0.000E+00  1.10898E+02  1.942E+00  5.000E+00  5.000E+03 -6.315E+00
   1   23   10     3     2    1.2019E+06 -2.0364E+04   1.2223E+06  0.000E+00  0.000E+00  0.000E+00  1.10088E+02  1.960E+00  5.000E+00  3.750E+03 -1.086E+01
   1   23   11     3     3    1.2223E+06 -1.3420E+04   1.2357E+06  0.000E+00  0.000E+00  0.000E+00  1.09513E+02  1.976E+00  5.000E+00  2.500E+03 -1.074E+01
   1   23   12     3     4    1.2357E+06 -2.8719E+04   1.2644E+06  0.000E+00  0.000E+00  0.000E+00  1.08824E+02  1.997E+00  5.000E+00  5.000E+03 -1.149E+01
   1   23   13     3     5    1.2644E+06 -3.1752E+04   1.2962E+06  0.000E+00  0.000E+00  0.000E+00  1.07907E+02  2.025E+00  5.000E+00  5.000E+03 -1.270E+01
   1   23   14     3     6    1.2962E+06 -3.6197E+04   1.3324E+06  0.000E+00  0.000E+00  0.000E+00  1.06993E+02  2.057E+00  5.000E+00  5.000E+03 -1.448E+01
   1   23   15     3     7    1.3324E+06 -4.7810E+04   1.3802E+06  0.000E+00  0.000E+00  0.000E+00  1.06087E+02  2.097E+00  5.000E+00  5.000E+03 -1.912E+01
   1   23   16     3     8    1.3802E+06 -8.4724E+04   1.4649E+06  0.000E+00  0.000E+00  0.000E+00  1.05202E+02  2.158E+00  5.000E+00  5.000E+03 -3.389E+01





     0  LAKE CELLS ARE DRY.

 PERIOD     1     TIME STEP    33     TIME STEP LENGTH  5.1404E+00
 PERIOD TIME  1.5680E+02     TOTAL SIMULATION TIME  1.5680E+02


                 HYDROLOGIC BUDGET SUMMARIES FOR SIMULATED LAKES
     (ALL FLUID FLUXES ARE VOLUMES ADDED TO THE LAKE DURING PRESENT TIME STEP)
     -------------------------------------------------------------------------
 LAKE    STAGE         VOLUME     VOL.CHANGE      PRECIP     EVAPORATION        RUNOFF
   1   116.6465     8.2790E+07    6.3800E+04    3.7268E+05    3.3091E+05    0.0000E+00
   2   111.3633     4.9770E+07    8.0296E+04    3.7268E+05    3.3091E+05    0.0000E+00

            GROUND WATER            SURFACE WATER        WATER
 LAKE    INFLOW     OUTFLOW      INFLOW     OUTFLOW       USE
   1  5.1266E+05  0.0000E+00  4.5288E+06  5.0194E+06  0.0000E+00
   2  6.9578E+05  0.0000E+00  5.4399E+06  6.0971E+06  0.0000E+00

      CONNECTED LAKE   TIME-STEP         STAGE-CHANGE          PERCENT
 LAKE    INFLUX      SURFACE AREA   TIME STEP  CUMULATIVE    DISCREPANCY
   1   0.0000E+00     6.2500E+06   1.0208E-02 -1.3353E+01       0.000
   2   0.0000E+00     6.2500E+06   1.2848E-02 -1.8637E+01       0.000
 --------------------------------------------------------------------------------



            CUMULATIVE HYDROLOGIC BUDGET SUMMARIES FOR SIMULATED LAKES
     (ALL FLUID FLUXES ARE SUMS OF VOLUMES ADDED TO THE LAKE SINCE INITIAL TIME)
     ---------------------------------------------------------------------------
 LAKE       PRECIP       EVAP       RUNOFF
   1     1.1368E+07  1.0094E+07  0.0000E+00
   2     1.1368E+07  1.0094E+07  0.0000E+00

            GROUND WATER            SURFACE WATER
 LAKE    INFLOW     OUTFLOW      INFLOW     OUTFLOW
   1  8.0286E+06  1.5644E+06  1.1879E+08  2.0999E+08
   2  1.5684E+07  1.4259E+06  2.1839E+08  3.5040E+08

         WATER    CONNECTED LAKE   CHANGE       PERCENT
 LAKE     USE         INFLUX       IN VOL.    DISCREPANCY
   1   0.0000E+00   0.0000E+00  -8.3459E+07      0.000
   2   0.0000E+00   0.0000E+00  -1.1648E+08      0.000
 --------------------------------------------------------------------------------

 
 SOLVING FOR HEAD 
     6 ITERATIONS FOR TIME STEP  34 IN STRESS PERIOD    1

 HEAD/DRAWDOWN PRINTOUT FLAG = 0     TOTAL BUDGET PRINTOUT FLAG = 0
 CELL-BY-CELL FLOW TERM FLAG = 1

 OUTPUT FLAGS FOR ALL LAYERS ARE THE SAME:
   HEAD    DRAWDOWN  HEAD  DRAWDOWN
 PRINTOUT  PRINTOUT  SAVE    SAVE
 ----------------------------------
     0         0       0       0



 STREAM LISTING     PERIOD      1   STEP       34

 LAYER ROW COL. STREAM  RCH.  FLOW INTO     FLOW TO   FLOW OUT OF   OVRLND.     DIRECT     STREAM       STREAM     STREAM     STREAM   STREAMBED  STREAMBED
                SEG.NO.  NO.  STRM. RCH.    AQUIFER    STRM. RCH.    RUNOFF     PRECIP       ET          HEAD       DEPTH      WIDTH   CONDCTNC.   GRADIENT

   1    2    5     1     1    6.9120E+05 -7.1599E+04   7.6280E+05  0.000E+00  0.000E+00  0.000E+00  1.25325E+02  1.377E+00  5.000E+00  5.000E+03 -2.864E+01
   1    3    5     1     2    7.6280E+05 -3.4666E+04   7.9747E+05  0.000E+00  0.000E+00  0.000E+00  1.24281E+02  1.437E+00  5.000E+00  5.000E+03 -1.387E+01
   1    4    5     1     3    7.9747E+05 -1.9962E+04   8.1743E+05  0.000E+00  0.000E+00  0.000E+00  1.23208E+02  1.467E+00  5.000E+00  5.000E+03 -7.985E+00
   1    4    6     1     4    8.1743E+05 -1.9437E+04   8.3686E+05  0.000E+00  0.000E+00  0.000E+00  1.22126E+02  1.488E+00  5.000E+00  5.000E+03 -7.775E+00
   1    4    7     1     5    8.3686E+05 -1.0110E+04   8.4697E+05  0.000E+00  0.000E+00  0.000E+00  1.21314E+02  1.504E+00  5.000E+00  2.500E+03 -8.088E+00
   1    4    8     1     6    8.4697E+05 -1.6486E+04   8.6346E+05  0.000E+00  0.000E+00  0.000E+00  1.20639E+02  1.518E+00  5.000E+00  3.750E+03 -8.792E+00
   1    5    8     1     7    8.6346E+05 -1.3825E+04   8.7728E+05  0.000E+00  0.000E+00  0.000E+00  1.19689E+02  1.534E+00  5.000E+00  5.000E+03 -5.530E+00
   1    6    8     1     8    8.7728E+05 -9.3425E+03   8.8663E+05  0.000E+00  0.000E+00  0.000E+00  1.18598E+02  1.546E+00  5.000E+00  5.000E+03 -3.737E+00
   1   12    9     2     1    9.8554E+05 -1.2409E+04   9.9795E+05  0.000E+00  0.000E+00  0.000E+00  1.16253E+02  1.813E+00  5.000E+00  5.000E+03 -4.963E+00
   1   13    9     2     2    9.9795E+05 -1.7910E+04   1.0159E+06  0.000E+00  0.000E+00  0.000E+00  1.15449E+02  1.830E+00  5.000E+00  5.000E+03 -7.164E+00
   1   14   10     2     3    1.0159E+06 -9.6932E+03   1.0256E+06  0.000E+00  0.000E+00  0.000E+00  1.14824E+02  1.845E+00  5.000E+00  2.795E+03 -6.936E+00
   1   14   10     2     4    1.0256E+06 -1.0944E+04   1.0365E+06  0.000E+00  0.000E+00  0.000E+00  1.14377E+02  1.856E+00  5.000E+00  2.795E+03 -7.831E+00
   1   15   10     2     5    1.0365E+06 -1.8714E+04   1.0552E+06  0.000E+00  0.000E+00  0.000E+00  1.13753E+02  1.872E+00  5.000E+00  5.000E+03 -7.485E+00
   1   16   10     2     6    1.0552E+06 -1.3562E+04   1.0688E+06  0.000E+00  0.000E+00  0.000E+00  1.12950E+02  1.889E+00  5.000E+00  5.000E+03 -5.425E+00
   1   22   10     3     1    1.1991E+06 -1.5922E+04   1.2150E+06  0.000E+00  0.000E+00  0.000E+00  1.10911E+02  1.955E+00  5.000E+00  5.000E+03 -6.369E+00
   1   23   10     3     2    1.2150E+06 -2.0714E+04   1.2357E+06  0.000E+00  0.000E+00  0.000E+00  1.10101E+02  1.973E+00  5.000E+00  3.750E+03 -1.105E+01
   1   23   11     3     3    1.2357E+06 -1.3616E+04   1.2493E+06  0.000E+00  0.000E+00  0.000E+00  1.09526E+02  1.989E+00  5.000E+00  2.500E+03 -1.089E+01
   1   23   12     3     4    1.2493E+06 -2.9088E+04   1.2784E+06  0.000E+00  0.000E+00  0.000E+00  1.08837E+02  2.010E+00  5.000E+00  5.000E+03 -1.164E+01
   1   23   13     3     5    1.2784E+06 -3.2180E+04   1.3106E+06  0.000E+00  0.000E+00  0.000E+00  1.07921E+02  2.039E+00  5.000E+00  5.000E+03 -1.287E+01
   1   23   14     3     6    1.3106E+06 -3.6713E+04   1.3473E+06  0.000E+00  0.000E+00  0.000E+00  1.07007E+02  2.071E+00  5.000E+00  5.000E+03 -1.469E+01
   1   23   15     3     7    1.3473E+06 -4.8354E+04   1.3957E+06  0.000E+00  0.000E+00  0.000E+00  1.06101E+02  2.111E+00  5.000E+00  5.000E+03 -1.934E+01
   1   23   16     3     8    1.3957E+06 -8.5000E+04   1.4807E+06  0.000E+00  0.000E+00  0.000E+00  1.05216E+02  2.172E+00  5.000E+00  5.000E+03 -3.400E+01





     0  LAKE CELLS ARE DRY.

 PERIOD     1     TIME STEP    34     TIME STEP LENGTH  5.1661E+00
 PERIOD TIME  1.6196E+02     TOTAL SIMULATION TIME  1.6196E+02


                 HYDROLOGIC BUDGET SUMMARIES FOR SIMULATED LAKES
     (ALL FLUID FLUXES ARE VOLUMES ADDED TO THE LAKE DURING PRESENT TIME STEP)
     -------------------------------------------------------------------------
 LAKE    STAGE         VOLUME     VOL.CHANGE      PRECIP     EVAPORATION        RUNOFF
   1   116.6565     8.2852E+07    6.2280E+04    3.7454E+05    3.3257E+05    0.0000E+00
   2   111.3760     4.9849E+07    7.9476E+04    3.7454E+05    3.3257E+05    0.0000E+00

            GROUND WATER            SURFACE WATER        WATER
 LAKE    INFLOW     OUTFLOW      INFLOW     OUTFLOW       USE
   1  5.3130E+05  0.0000E+00  4.5804E+06  5.0914E+06  0.0000E+00
   2  7.1068E+05  0.0000E+00  5.5213E+06  6.1945E+06  0.0000E+00

      CONNECTED LAKE   TIME-STEP         STAGE-CHANGE          PERCENT
 LAKE    INFLUX      SURFACE AREA   TIME STEP  CUMULATIVE    DISCREPANCY
   1   0.0000E+00     6.2500E+06   9.9651E-03 -1.3344E+01       0.000
   2   0.0000E+00     6.2500E+06   1.2716E-02 -1.8624E+01       0.000
 --------------------------------------------------------------------------------



            CUMULATIVE HYDROLOGIC BUDGET SUMMARIES FOR SIMULATED LAKES
     (ALL FLUID FLUXES ARE SUMS OF VOLUMES ADDED TO THE LAKE SINCE INITIAL TIME)
     ---------------------------------------------------------------------------
 LAKE       PRECIP       EVAP       RUNOFF
   1     1.1742E+07  1.0426E+07  0.0000E+00
   2     1.1742E+07  1.0426E+07  0.0000E+00

            GROUND WATER            SURFACE WATER
 LAKE    INFLOW     OUTFLOW      INFLOW     OUTFLOW
   1  8.5599E+06  1.5644E+06  1.2337E+08  2.1508E+08
   2  1.6395E+07  1.4259E+06  2.2391E+08  3.5659E+08

         WATER    CONNECTED LAKE   CHANGE       PERCENT
 LAKE     USE         INFLUX       IN VOL.    DISCREPANCY
   1   0.0000E+00   0.0000E+00  -8.3396E+07      0.000
   2   0.0000E+00   0.0000E+00  -1.1640E+08      0.000
 --------------------------------------------------------------------------------

 
 SOLVING FOR HEAD 
     6 ITERATIONS FOR TIME STEP  35 IN STRESS PERIOD    1

 HEAD/DRAWDOWN PRINTOUT FLAG = 0     TOTAL BUDGET PRINTOUT FLAG = 0
 CELL-BY-CELL FLOW TERM FLAG = 1

 OUTPUT FLAGS FOR ALL LAYERS ARE THE SAME:
   HEAD    DRAWDOWN  HEAD  DRAWDOWN
 PRINTOUT  PRINTOUT  SAVE    SAVE
 ----------------------------------
     0         0       0       0



 STREAM LISTING     PERIOD      1   STEP       35

 LAYER ROW COL. STREAM  RCH.  FLOW INTO     FLOW TO   FLOW OUT OF   OVRLND.     DIRECT     STREAM       STREAM     STREAM     STREAM   STREAMBED  STREAMBED
                SEG.NO.  NO.  STRM. RCH.    AQUIFER    STRM. RCH.    RUNOFF     PRECIP       ET          HEAD       DEPTH      WIDTH   CONDCTNC.   GRADIENT

   1    2    5     1     1    6.9120E+05 -7.2085E+04   7.6328E+05  0.000E+00  0.000E+00  0.000E+00  1.25326E+02  1.377E+00  5.000E+00  5.000E+03 -2.883E+01
   1    3    5     1     2    7.6328E+05 -3.5726E+04   7.9901E+05  0.000E+00  0.000E+00  0.000E+00  1.24283E+02  1.438E+00  5.000E+00  5.000E+03 -1.429E+01
   1    4    5     1     3    7.9901E+05 -2.1096E+04   8.2011E+05  0.000E+00  0.000E+00  0.000E+00  1.23210E+02  1.469E+00  5.000E+00  5.000E+03 -8.438E+00
   1    4    6     1     4    8.2011E+05 -2.0256E+04   8.4036E+05  0.000E+00  0.000E+00  0.000E+00  1.22129E+02  1.491E+00  5.000E+00  5.000E+03 -8.102E+00
   1    4    7     1     5    8.4036E+05 -1.0507E+04   8.5087E+05  0.000E+00  0.000E+00  0.000E+00  1.21318E+02  1.508E+00  5.000E+00  2.500E+03 -8.406E+00
   1    4    8     1     6    8.5087E+05 -1.7143E+04   8.6801E+05  0.000E+00  0.000E+00  0.000E+00  1.20643E+02  1.523E+00  5.000E+00  3.750E+03 -9.143E+00
   1    5    8     1     7    8.6801E+05 -1.4387E+04   8.8240E+05  0.000E+00  0.000E+00  0.000E+00  1.19694E+02  1.539E+00  5.000E+00  5.000E+03 -5.755E+00
   1    6    8     1     8    8.8240E+05 -9.6638E+03   8.9206E+05  0.000E+00  0.000E+00  0.000E+00  1.18604E+02  1.552E+00  5.000E+00  5.000E+03 -3.866E+00
   1   12    9     2     1    9.9445E+05 -1.2626E+04   1.0071E+06  0.000E+00  0.000E+00  0.000E+00  1.16263E+02  1.823E+00  5.000E+00  5.000E+03 -5.050E+00
   1   13    9     2     2    1.0071E+06 -1.8261E+04   1.0253E+06  0.000E+00  0.000E+00  0.000E+00  1.15459E+02  1.840E+00  5.000E+00  5.000E+03 -7.304E+00
   1   14   10     2     3    1.0253E+06 -9.8889E+03   1.0352E+06  0.000E+00  0.000E+00  0.000E+00  1.14835E+02  1.855E+00  5.000E+00  2.795E+03 -7.076E+00
   1   14   10     2     4    1.0352E+06 -1.1139E+04   1.0464E+06  0.000E+00  0.000E+00  0.000E+00  1.14387E+02  1.867E+00  5.000E+00  2.795E+03 -7.971E+00
   1   15   10     2     5    1.0464E+06 -1.9016E+04   1.0654E+06  0.000E+00  0.000E+00  0.000E+00  1.13764E+02  1.883E+00  5.000E+00  5.000E+03 -7.606E+00
   1   16   10     2     6    1.0654E+06 -1.3739E+04   1.0791E+06  0.000E+00  0.000E+00  0.000E+00  1.12961E+02  1.900E+00  5.000E+00  5.000E+03 -5.496E+00
   1   22   10     3     1    1.2120E+06 -1.6061E+04   1.2281E+06  0.000E+00  0.000E+00  0.000E+00  1.10923E+02  1.968E+00  5.000E+00  5.000E+03 -6.424E+00
   1   23   10     3     2    1.2281E+06 -2.1072E+04   1.2491E+06  0.000E+00  0.000E+00  0.000E+00  1.10114E+02  1.985E+00  5.000E+00  3.750E+03 -1.124E+01
   1   23   11     3     3    1.2491E+06 -1.3815E+04   1.2629E+06  0.000E+00  0.000E+00  0.000E+00  1.09539E+02  2.002E+00  5.000E+00  2.500E+03 -1.105E+01
   1   23   12     3     4    1.2629E+06 -2.9464E+04   1.2924E+06  0.000E+00  0.000E+00  0.000E+00  1.08850E+02  2.023E+00  5.000E+00  5.000E+03 -1.179E+01
   1   23   13     3     5    1.2924E+06 -3.2614E+04   1.3250E+06  0.000E+00  0.000E+00  0.000E+00  1.07934E+02  2.052E+00  5.000E+00  5.000E+03 -1.305E+01
   1   23   14     3     6    1.3250E+06 -3.7229E+04   1.3623E+06  0.000E+00  0.000E+00  0.000E+00  1.07021E+02  2.085E+00  5.000E+00  5.000E+03 -1.489E+01
   1   23   15     3     7    1.3623E+06 -4.8885E+04   1.4111E+06  0.000E+00  0.000E+00  0.000E+00  1.06115E+02  2.125E+00  5.000E+00  5.000E+03 -1.955E+01
   1   23   16     3     8    1.4111E+06 -8.5261E+04   1.4964E+06  0.000E+00  0.000E+00  0.000E+00  1.05230E+02  2.186E+00  5.000E+00  5.000E+03 -3.410E+01





     0  LAKE CELLS ARE DRY.

 PERIOD     1     TIME STEP    35     TIME STEP LENGTH  5.1919E+00
 PERIOD TIME  1.6716E+02     TOTAL SIMULATION TIME  1.6716E+02


                 HYDROLOGIC BUDGET SUMMARIES FOR SIMULATED LAKES
     (ALL FLUID FLUXES ARE VOLUMES ADDED TO THE LAKE DURING PRESENT TIME STEP)
     -------------------------------------------------------------------------
 LAKE    STAGE         VOLUME     VOL.CHANGE      PRECIP     EVAPORATION        RUNOFF
   1   116.6662     8.2913E+07    6.0840E+04    3.7641E+05    3.3423E+05    0.0000E+00
   2   111.3885     4.9927E+07    7.8248E+04    3.7641E+05    3.3423E+05    0.0000E+00

            GROUND WATER            SURFACE WATER        WATER
 LAKE    INFLOW     OUTFLOW      INFLOW     OUTFLOW       USE
   1  5.5024E+05  0.0000E+00  4.6315E+06  5.1631E+06  0.0000E+00
   2  7.2598E+05  0.0000E+00  5.6027E+06  6.2926E+06  0.0000E+00

      CONNECTED LAKE   TIME-STEP         STAGE-CHANGE          PERCENT
 LAKE    INFLUX      SURFACE AREA   TIME STEP  CUMULATIVE    DISCREPANCY
   1   0.0000E+00     6.2500E+06   9.7345E-03 -1.3334E+01       0.000
   2   0.0000E+00     6.2500E+06   1.2520E-02 -1.8611E+01       0.000
 --------------------------------------------------------------------------------



            CUMULATIVE HYDROLOGIC BUDGET SUMMARIES FOR SIMULATED LAKES
     (ALL FLUID FLUXES ARE SUMS OF VOLUMES ADDED TO THE LAKE SINCE INITIAL TIME)
     ---------------------------------------------------------------------------
 LAKE       PRECIP       EVAP       RUNOFF
   1     1.2119E+07  1.0761E+07  0.0000E+00
   2     1.2119E+07  1.0761E+07  0.0000E+00

            GROUND WATER            SURFACE WATER
 LAKE    INFLOW     OUTFLOW      INFLOW     OUTFLOW
   1  9.1101E+06  1.5644E+06  1.2800E+08  2.2024E+08
   2  1.7121E+07  1.4259E+06  2.2951E+08  3.6288E+08

         WATER    CONNECTED LAKE   CHANGE       PERCENT
 LAKE     USE         INFLUX       IN VOL.    DISCREPANCY
   1   0.0000E+00   0.0000E+00  -8.3336E+07      0.000
   2   0.0000E+00   0.0000E+00  -1.1632E+08      0.000
 --------------------------------------------------------------------------------

 
 SOLVING FOR HEAD 
     6 ITERATIONS FOR TIME STEP  36 IN STRESS PERIOD    1

 HEAD/DRAWDOWN PRINTOUT FLAG = 0     TOTAL BUDGET PRINTOUT FLAG = 0
 CELL-BY-CELL FLOW TERM FLAG = 1

 OUTPUT FLAGS FOR ALL LAYERS ARE THE SAME:
   HEAD    DRAWDOWN  HEAD  DRAWDOWN
 PRINTOUT  PRINTOUT  SAVE    SAVE
 ----------------------------------
     0         0       0       0



 STREAM LISTING     PERIOD      1   STEP       36

 LAYER ROW COL. STREAM  RCH.  FLOW INTO     FLOW TO   FLOW OUT OF   OVRLND.     DIRECT     STREAM       STREAM     STREAM     STREAM   STREAMBED  STREAMBED
                SEG.NO.  NO.  STRM. RCH.    AQUIFER    STRM. RCH.    RUNOFF     PRECIP       ET          HEAD       DEPTH      WIDTH   CONDCTNC.   GRADIENT

   1    2    5     1     1    6.9120E+05 -7.2538E+04   7.6374E+05  0.000E+00  0.000E+00  0.000E+00  1.25326E+02  1.378E+00  5.000E+00  5.000E+03 -2.902E+01
   1    3    5     1     2    7.6374E+05 -3.6740E+04   8.0048E+05  0.000E+00  0.000E+00  0.000E+00  1.24284E+02  1.439E+00  5.000E+00  5.000E+03 -1.470E+01
   1    4    5     1     3    8.0048E+05 -2.2211E+04   8.2269E+05  0.000E+00  0.000E+00  0.000E+00  1.23213E+02  1.471E+00  5.000E+00  5.000E+03 -8.884E+00
   1    4    6     1     4    8.2269E+05 -2.1052E+04   8.4374E+05  0.000E+00  0.000E+00  0.000E+00  1.22132E+02  1.495E+00  5.000E+00  5.000E+03 -8.421E+00
   1    4    7     1     5    8.4374E+05 -1.0893E+04   8.5463E+05  0.000E+00  0.000E+00  0.000E+00  1.21322E+02  1.512E+00  5.000E+00  2.500E+03 -8.714E+00
   1    4    8     1     6    8.5463E+05 -1.7785E+04   8.7242E+05  0.000E+00  0.000E+00  0.000E+00  1.20648E+02  1.527E+00  5.000E+00  3.750E+03 -9.485E+00
   1    5    8     1     7    8.7242E+05 -1.4944E+04   8.8736E+05  0.000E+00  0.000E+00  0.000E+00  1.19699E+02  1.544E+00  5.000E+00  5.000E+03 -5.977E+00
   1    6    8     1     8    8.8736E+05 -9.9836E+03   8.9735E+05  0.000E+00  0.000E+00  0.000E+00  1.18609E+02  1.557E+00  5.000E+00  5.000E+03 -3.993E+00
   1   12    9     2     1    1.0032E+06 -1.2842E+04   1.0160E+06  0.000E+00  0.000E+00  0.000E+00  1.16272E+02  1.833E+00  5.000E+00  5.000E+03 -5.137E+00
   1   13    9     2     2    1.0160E+06 -1.8611E+04   1.0346E+06  0.000E+00  0.000E+00  0.000E+00  1.15469E+02  1.850E+00  5.000E+00  5.000E+03 -7.444E+00
   1   14   10     2     3    1.0346E+06 -1.0084E+04   1.0447E+06  0.000E+00  0.000E+00  0.000E+00  1.14845E+02  1.865E+00  5.000E+00  2.795E+03 -7.216E+00
   1   14   10     2     4    1.0447E+06 -1.1334E+04   1.0561E+06  0.000E+00  0.000E+00  0.000E+00  1.14398E+02  1.877E+00  5.000E+00  2.795E+03 -8.110E+00
   1   15   10     2     5    1.0561E+06 -1.9319E+04   1.0754E+06  0.000E+00  0.000E+00  0.000E+00  1.13774E+02  1.893E+00  5.000E+00  5.000E+03 -7.728E+00
   1   16   10     2     6    1.0754E+06 -1.3918E+04   1.0893E+06  0.000E+00  0.000E+00  0.000E+00  1.12971E+02  1.911E+00  5.000E+00  5.000E+03 -5.567E+00
   1   22   10     3     1    1.2248E+06 -1.6206E+04   1.2410E+06  0.000E+00  0.000E+00  0.000E+00  1.10936E+02  1.980E+00  5.000E+00  5.000E+03 -6.482E+00
   1   23   10     3     2    1.2410E+06 -2.1435E+04   1.2624E+06  0.000E+00  0.000E+00  0.000E+00  1.10126E+02  1.998E+00  5.000E+00  3.750E+03 -1.143E+01
   1   23   11     3     3    1.2624E+06 -1.4017E+04   1.2764E+06  0.000E+00  0.000E+00  0.000E+00  1.09552E+02  2.015E+00  5.000E+00  2.500E+03 -1.121E+01
   1   23   12     3     4    1.2764E+06 -2.9846E+04   1.3063E+06  0.000E+00  0.000E+00  0.000E+00  1.08863E+02  2.036E+00  5.000E+00  5.000E+03 -1.194E+01
   1   23   13     3     5    1.3063E+06 -3.3052E+04   1.3393E+06  0.000E+00  0.000E+00  0.000E+00  1.07947E+02  2.065E+00  5.000E+00  5.000E+03 -1.322E+01
   1   23   14     3     6    1.3393E+06 -3.7745E+04   1.3771E+06  0.000E+00  0.000E+00  0.000E+00  1.07034E+02  2.098E+00  5.000E+00  5.000E+03 -1.510E+01
   1   23   15     3     7    1.3771E+06 -4.9403E+04   1.4265E+06  0.000E+00  0.000E+00  0.000E+00  1.06129E+02  2.139E+00  5.000E+00  5.000E+03 -1.976E+01
   1   23   16     3     8    1.4265E+06 -8.5509E+04   1.5120E+06  0.000E+00  0.000E+00  0.000E+00  1.05244E+02  2.200E+00  5.000E+00  5.000E+03 -3.420E+01





     0  LAKE CELLS ARE DRY.

 PERIOD     1     TIME STEP    36     TIME STEP LENGTH  5.2179E+00
 PERIOD TIME  1.7237E+02     TOTAL SIMULATION TIME  1.7237E+02


                 HYDROLOGIC BUDGET SUMMARIES FOR SIMULATED LAKES
     (ALL FLUID FLUXES ARE VOLUMES ADDED TO THE LAKE DURING PRESENT TIME STEP)
     -------------------------------------------------------------------------
 LAKE    STAGE         VOLUME     VOL.CHANGE      PRECIP     EVAPORATION        RUNOFF
   1   116.6757     8.2973E+07    5.9632E+04    3.7829E+05    3.3590E+05    0.0000E+00
   2   111.4009     5.0005E+07    7.7116E+04    3.7829E+05    3.3590E+05    0.0000E+00

            GROUND WATER            SURFACE WATER        WATER
 LAKE    INFLOW     OUTFLOW      INFLOW     OUTFLOW       USE
   1  5.6949E+05  0.0000E+00  4.6822E+06  5.2345E+06  0.0000E+00
   2  7.4169E+05  0.0000E+00  5.6838E+06  6.3907E+06  0.0000E+00

      CONNECTED LAKE   TIME-STEP         STAGE-CHANGE          PERCENT
 LAKE    INFLUX      SURFACE AREA   TIME STEP  CUMULATIVE    DISCREPANCY
   1   0.0000E+00     6.2500E+06   9.5406E-03 -1.3324E+01       0.000
   2   0.0000E+00     6.2500E+06   1.2339E-02 -1.8599E+01       0.000
 --------------------------------------------------------------------------------



            CUMULATIVE HYDROLOGIC BUDGET SUMMARIES FOR SIMULATED LAKES
     (ALL FLUID FLUXES ARE SUMS OF VOLUMES ADDED TO THE LAKE SINCE INITIAL TIME)
     ---------------------------------------------------------------------------
 LAKE       PRECIP       EVAP       RUNOFF
   1     1.2497E+07  1.1097E+07  0.0000E+00
   2     1.2497E+07  1.1097E+07  0.0000E+00

            GROUND WATER            SURFACE WATER
 LAKE    INFLOW     OUTFLOW      INFLOW     OUTFLOW
   1  9.6796E+06  1.5644E+06  1.3269E+08  2.2548E+08
   2  1.7862E+07  1.4259E+06  2.3519E+08  3.6928E+08

         WATER    CONNECTED LAKE   CHANGE       PERCENT
 LAKE     USE         INFLUX       IN VOL.    DISCREPANCY
   1   0.0000E+00   0.0000E+00  -8.3276E+07      0.000
   2   0.0000E+00   0.0000E+00  -1.1624E+08      0.000
 --------------------------------------------------------------------------------

 
 SOLVING FOR HEAD 
     6 ITERATIONS FOR TIME STEP  37 IN STRESS PERIOD    1

 HEAD/DRAWDOWN PRINTOUT FLAG = 0     TOTAL BUDGET PRINTOUT FLAG = 0
 CELL-BY-CELL FLOW TERM FLAG = 1

 OUTPUT FLAGS FOR ALL LAYERS ARE THE SAME:
   HEAD    DRAWDOWN  HEAD  DRAWDOWN
 PRINTOUT  PRINTOUT  SAVE    SAVE
 ----------------------------------
     0         0       0       0



 STREAM LISTING     PERIOD      1   STEP       37

 LAYER ROW COL. STREAM  RCH.  FLOW INTO     FLOW TO   FLOW OUT OF   OVRLND.     DIRECT     STREAM       STREAM     STREAM     STREAM   STREAMBED  STREAMBED
                SEG.NO.  NO.  STRM. RCH.    AQUIFER    STRM. RCH.    RUNOFF     PRECIP       ET          HEAD       DEPTH      WIDTH   CONDCTNC.   GRADIENT

   1    2    5     1     1    6.9120E+05 -7.2962E+04   7.6416E+05  0.000E+00  0.000E+00  0.000E+00  1.25326E+02  1.378E+00  5.000E+00  5.000E+03 -2.918E+01
   1    3    5     1     2    7.6416E+05 -3.7710E+04   8.0187E+05  0.000E+00  0.000E+00  0.000E+00  1.24285E+02  1.440E+00  5.000E+00  5.000E+03 -1.508E+01
   1    4    5     1     3    8.0187E+05 -2.3305E+04   8.2518E+05  0.000E+00  0.000E+00  0.000E+00  1.23215E+02  1.473E+00  5.000E+00  5.000E+03 -9.322E+00
   1    4    6     1     4    8.2518E+05 -2.1827E+04   8.4700E+05  0.000E+00  0.000E+00  0.000E+00  1.22136E+02  1.498E+00  5.000E+00  5.000E+03 -8.731E+00
   1    4    7     1     5    8.4700E+05 -1.1267E+04   8.5827E+05  0.000E+00  0.000E+00  0.000E+00  1.21326E+02  1.515E+00  5.000E+00  2.500E+03 -9.014E+00
   1    4    8     1     6    8.5827E+05 -1.8411E+04   8.7668E+05  0.000E+00  0.000E+00  0.000E+00  1.20652E+02  1.531E+00  5.000E+00  3.750E+03 -9.819E+00
   1    5    8     1     7    8.7668E+05 -1.5495E+04   8.9218E+05  0.000E+00  0.000E+00  0.000E+00  1.19704E+02  1.549E+00  5.000E+00  5.000E+03 -6.198E+00
   1    6    8     1     8    8.9218E+05 -1.0302E+04   9.0248E+05  0.000E+00  0.000E+00  0.000E+00  1.18614E+02  1.563E+00  5.000E+00  5.000E+03 -4.121E+00
   1   12    9     2     1    1.0118E+06 -1.3058E+04   1.0248E+06  0.000E+00  0.000E+00  0.000E+00  1.16282E+02  1.842E+00  5.000E+00  5.000E+03 -5.223E+00
   1   13    9     2     2    1.0248E+06 -1.8960E+04   1.0438E+06  0.000E+00  0.000E+00  0.000E+00  1.15479E+02  1.860E+00  5.000E+00  5.000E+03 -7.584E+00
   1   14   10     2     3    1.0438E+06 -1.0280E+04   1.0541E+06  0.000E+00  0.000E+00  0.000E+00  1.14855E+02  1.875E+00  5.000E+00  2.795E+03 -7.356E+00
   1   14   10     2     4    1.0541E+06 -1.1529E+04   1.0656E+06  0.000E+00  0.000E+00  0.000E+00  1.14408E+02  1.887E+00  5.000E+00  2.795E+03 -8.250E+00
   1   15   10     2     5    1.0656E+06 -1.9623E+04   1.0852E+06  0.000E+00  0.000E+00  0.000E+00  1.13785E+02  1.904E+00  5.000E+00  5.000E+03 -7.849E+00
   1   16   10     2     6    1.0852E+06 -1.4100E+04   1.0993E+06  0.000E+00  0.000E+00  0.000E+00  1.12982E+02  1.921E+00  5.000E+00  5.000E+03 -5.640E+00
   1   22   10     3     1    1.2374E+06 -1.6357E+04   1.2538E+06  0.000E+00  0.000E+00  0.000E+00  1.10948E+02  1.992E+00  5.000E+00  5.000E+03 -6.543E+00
   1   23   10     3     2    1.2538E+06 -2.1804E+04   1.2756E+06  0.000E+00  0.000E+00  0.000E+00  1.10139E+02  2.010E+00  5.000E+00  3.750E+03 -1.163E+01
   1   23   11     3     3    1.2756E+06 -1.4223E+04   1.2898E+06  0.000E+00  0.000E+00  0.000E+00  1.09565E+02  2.028E+00  5.000E+00  2.500E+03 -1.138E+01
   1   23   12     3     4    1.2898E+06 -3.0234E+04   1.3200E+06  0.000E+00  0.000E+00  0.000E+00  1.08876E+02  2.049E+00  5.000E+00  5.000E+03 -1.209E+01
   1   23   13     3     5    1.3200E+06 -3.3495E+04   1.3535E+06  0.000E+00  0.000E+00  0.000E+00  1.07960E+02  2.078E+00  5.000E+00  5.000E+03 -1.340E+01
   1   23   14     3     6    1.3535E+06 -3.8259E+04   1.3918E+06  0.000E+00  0.000E+00  0.000E+00  1.07048E+02  2.112E+00  5.000E+00  5.000E+03 -1.530E+01
   1   23   15     3     7    1.3918E+06 -4.9906E+04   1.4417E+06  0.000E+00  0.000E+00  0.000E+00  1.06142E+02  2.152E+00  5.000E+00  5.000E+03 -1.996E+01
   1   23   16     3     8    1.4417E+06 -8.5744E+04   1.5274E+06  0.000E+00  0.000E+00  0.000E+00  1.05258E+02  2.213E+00  5.000E+00  5.000E+03 -3.430E+01





     0  LAKE CELLS ARE DRY.

 PERIOD     1     TIME STEP    37     TIME STEP LENGTH  5.2439E+00
 PERIOD TIME  1.7762E+02     TOTAL SIMULATION TIME  1.7762E+02


                 HYDROLOGIC BUDGET SUMMARIES FOR SIMULATED LAKES
     (ALL FLUID FLUXES ARE VOLUMES ADDED TO THE LAKE DURING PRESENT TIME STEP)
     -------------------------------------------------------------------------
 LAKE    STAGE         VOLUME     VOL.CHANGE      PRECIP     EVAPORATION        RUNOFF
   1   116.6851     8.3031E+07    5.8560E+04    3.8019E+05    3.3758E+05    0.0000E+00
   2   111.4131     5.0081E+07    7.6200E+04    3.8019E+05    3.3758E+05    0.0000E+00

            GROUND WATER            SURFACE WATER        WATER
 LAKE    INFLOW     OUTFLOW      INFLOW     OUTFLOW       USE
   1  5.8902E+05  0.0000E+00  4.7326E+06  5.3056E+06  0.0000E+00
   2  7.5780E+05  0.0000E+00  5.7647E+06  6.4889E+06  0.0000E+00

      CONNECTED LAKE   TIME-STEP         STAGE-CHANGE          PERCENT
 LAKE    INFLUX      SURFACE AREA   TIME STEP  CUMULATIVE    DISCREPANCY
   1   0.0000E+00     6.2500E+06   9.3696E-03 -1.3315E+01       0.000
   2   0.0000E+00     6.2500E+06   1.2192E-02 -1.8587E+01       0.000
 --------------------------------------------------------------------------------



            CUMULATIVE HYDROLOGIC BUDGET SUMMARIES FOR SIMULATED LAKES
     (ALL FLUID FLUXES ARE SUMS OF VOLUMES ADDED TO THE LAKE SINCE INITIAL TIME)
     ---------------------------------------------------------------------------
 LAKE       PRECIP       EVAP       RUNOFF
   1     1.2877E+07  1.1434E+07  0.0000E+00
   2     1.2877E+07  1.1434E+07  0.0000E+00

            GROUND WATER            SURFACE WATER
 LAKE    INFLOW     OUTFLOW      INFLOW     OUTFLOW
   1  1.0269E+07  1.5644E+06  1.3742E+08  2.3078E+08
   2  1.8620E+07  1.4259E+06  2.4096E+08  3.7576E+08

         WATER    CONNECTED LAKE   CHANGE       PERCENT
 LAKE     USE         INFLUX       IN VOL.    DISCREPANCY
   1   0.0000E+00   0.0000E+00  -8.3217E+07      0.000
   2   0.0000E+00   0.0000E+00  -1.1617E+08      0.000
 --------------------------------------------------------------------------------

 
 SOLVING FOR HEAD 
     6 ITERATIONS FOR TIME STEP  38 IN STRESS PERIOD    1

 HEAD/DRAWDOWN PRINTOUT FLAG = 0     TOTAL BUDGET PRINTOUT FLAG = 0
 CELL-BY-CELL FLOW TERM FLAG = 1

 OUTPUT FLAGS FOR ALL LAYERS ARE THE SAME:
   HEAD    DRAWDOWN  HEAD  DRAWDOWN
 PRINTOUT  PRINTOUT  SAVE    SAVE
 ----------------------------------
     0         0       0       0



 STREAM LISTING     PERIOD      1   STEP       38

 LAYER ROW COL. STREAM  RCH.  FLOW INTO     FLOW TO   FLOW OUT OF   OVRLND.     DIRECT     STREAM       STREAM     STREAM     STREAM   STREAMBED  STREAMBED
                SEG.NO.  NO.  STRM. RCH.    AQUIFER    STRM. RCH.    RUNOFF     PRECIP       ET          HEAD       DEPTH      WIDTH   CONDCTNC.   GRADIENT

   1    2    5     1     1    6.9120E+05 -7.3360E+04   7.6456E+05  0.000E+00  0.000E+00  0.000E+00  1.25326E+02  1.378E+00  5.000E+00  5.000E+03 -2.934E+01
   1    3    5     1     2    7.6456E+05 -3.8638E+04   8.0320E+05  0.000E+00  0.000E+00  0.000E+00  1.24286E+02  1.441E+00  5.000E+00  5.000E+03 -1.546E+01
   1    4    5     1     3    8.0320E+05 -2.4379E+04   8.2758E+05  0.000E+00  0.000E+00  0.000E+00  1.23217E+02  1.475E+00  5.000E+00  5.000E+03 -9.752E+00
   1    4    6     1     4    8.2758E+05 -2.2579E+04   8.5016E+05  0.000E+00  0.000E+00  0.000E+00  1.22139E+02  1.501E+00  5.000E+00  5.000E+03 -9.032E+00
   1    4    7     1     5    8.5016E+05 -1.1632E+04   8.6179E+05  0.000E+00  0.000E+00  0.000E+00  1.21329E+02  1.519E+00  5.000E+00  2.500E+03 -9.305E+00
   1    4    8     1     6    8.6179E+05 -1.9022E+04   8.8081E+05  0.000E+00  0.000E+00  0.000E+00  1.20656E+02  1.535E+00  5.000E+00  3.750E+03 -1.014E+01
   1    5    8     1     7    8.8081E+05 -1.6040E+04   8.9685E+05  0.000E+00  0.000E+00  0.000E+00  1.19709E+02  1.554E+00  5.000E+00  5.000E+03 -6.416E+00
   1    6    8     1     8    8.9685E+05 -1.0619E+04   9.0747E+05  0.000E+00  0.000E+00  0.000E+00  1.18619E+02  1.568E+00  5.000E+00  5.000E+03 -4.248E+00
   1   12    9     2     1    1.0202E+06 -1.3273E+04   1.0335E+06  0.000E+00  0.000E+00  0.000E+00  1.16291E+02  1.852E+00  5.000E+00  5.000E+03 -5.309E+00
   1   13    9     2     2    1.0335E+06 -1.9308E+04   1.0528E+06  0.000E+00  0.000E+00  0.000E+00  1.15488E+02  1.869E+00  5.000E+00  5.000E+03 -7.723E+00
   1   14   10     2     3    1.0528E+06 -1.0475E+04   1.0633E+06  0.000E+00  0.000E+00  0.000E+00  1.14864E+02  1.885E+00  5.000E+00  2.795E+03 -7.495E+00
   1   14   10     2     4    1.0633E+06 -1.1724E+04   1.0750E+06  0.000E+00  0.000E+00  0.000E+00  1.14418E+02  1.897E+00  5.000E+00  2.795E+03 -8.389E+00
   1   15   10     2     5    1.0750E+06 -1.9928E+04   1.0949E+06  0.000E+00  0.000E+00  0.000E+00  1.13795E+02  1.914E+00  5.000E+00  5.000E+03 -7.971E+00
   1   16   10     2     6    1.0949E+06 -1.4283E+04   1.1092E+06  0.000E+00  0.000E+00  0.000E+00  1.12992E+02  1.932E+00  5.000E+00  5.000E+03 -5.713E+00
   1   22   10     3     1    1.2499E+06 -1.6513E+04   1.2664E+06  0.000E+00  0.000E+00  0.000E+00  1.10960E+02  2.004E+00  5.000E+00  5.000E+03 -6.605E+00
   1   23   10     3     2    1.2664E+06 -2.2178E+04   1.2886E+06  0.000E+00  0.000E+00  0.000E+00  1.10151E+02  2.023E+00  5.000E+00  3.750E+03 -1.183E+01
   1   23   11     3     3    1.2886E+06 -1.4430E+04   1.3030E+06  0.000E+00  0.000E+00  0.000E+00  1.09577E+02  2.040E+00  5.000E+00  2.500E+03 -1.154E+01
   1   23   12     3     4    1.3030E+06 -3.0626E+04   1.3337E+06  0.000E+00  0.000E+00  0.000E+00  1.08889E+02  2.061E+00  5.000E+00  5.000E+03 -1.225E+01
   1   23   13     3     5    1.3337E+06 -3.3940E+04   1.3676E+06  0.000E+00  0.000E+00  0.000E+00  1.07973E+02  2.091E+00  5.000E+00  5.000E+03 -1.358E+01
   1   23   14     3     6    1.3676E+06 -3.8770E+04   1.4064E+06  0.000E+00  0.000E+00  0.000E+00  1.07061E+02  2.125E+00  5.000E+00  5.000E+03 -1.551E+01
   1   23   15     3     7    1.4064E+06 -5.0395E+04   1.4568E+06  0.000E+00  0.000E+00  0.000E+00  1.06156E+02  2.166E+00  5.000E+00  5.000E+03 -2.016E+01
   1   23   16     3     8    1.4568E+06 -8.5967E+04   1.5427E+06  0.000E+00  0.000E+00  0.000E+00  1.05271E+02  2.227E+00  5.000E+00  5.000E+03 -3.439E+01





     0  LAKE CELLS ARE DRY.

 PERIOD     1     TIME STEP    38     TIME STEP LENGTH  5.2702E+00
 PERIOD TIME  1.8289E+02     TOTAL SIMULATION TIME  1.8289E+02


                 HYDROLOGIC BUDGET SUMMARIES FOR SIMULATED LAKES
     (ALL FLUID FLUXES ARE VOLUMES ADDED TO THE LAKE DURING PRESENT TIME STEP)
     -------------------------------------------------------------------------
 LAKE    STAGE         VOLUME     VOL.CHANGE      PRECIP     EVAPORATION        RUNOFF
   1   116.6943     8.3089E+07    5.7608E+04    3.8209E+05    3.3927E+05    0.0000E+00
   2   111.4251     5.0156E+07    7.5472E+04    3.8209E+05    3.3927E+05    0.0000E+00

            GROUND WATER            SURFACE WATER        WATER
 LAKE    INFLOW     OUTFLOW      INFLOW     OUTFLOW       USE
   1  6.0890E+05  0.0000E+00  4.7825E+06  5.3766E+06  0.0000E+00
   2  7.7433E+05  0.0000E+00  5.8456E+06  6.5873E+06  0.0000E+00

      CONNECTED LAKE   TIME-STEP         STAGE-CHANGE          PERCENT
 LAKE    INFLUX      SURFACE AREA   TIME STEP  CUMULATIVE    DISCREPANCY
   1   0.0000E+00     6.2500E+06   9.2168E-03 -1.3306E+01       0.000
   2   0.0000E+00     6.2500E+06   1.2075E-02 -1.8575E+01       0.000
 --------------------------------------------------------------------------------



            CUMULATIVE HYDROLOGIC BUDGET SUMMARIES FOR SIMULATED LAKES
     (ALL FLUID FLUXES ARE SUMS OF VOLUMES ADDED TO THE LAKE SINCE INITIAL TIME)
     ---------------------------------------------------------------------------
 LAKE       PRECIP       EVAP       RUNOFF
   1     1.3259E+07  1.1773E+07  0.0000E+00
   2     1.3259E+07  1.1773E+07  0.0000E+00

            GROUND WATER            SURFACE WATER
 LAKE    INFLOW     OUTFLOW      INFLOW     OUTFLOW
   1  1.0878E+07  1.5644E+06  1.4220E+08  2.3616E+08
   2  1.9395E+07  1.4259E+06  2.4680E+08  3.8235E+08

         WATER    CONNECTED LAKE   CHANGE       PERCENT
 LAKE     USE         INFLUX       IN VOL.    DISCREPANCY
   1   0.0000E+00   0.0000E+00  -8.3160E+07      0.000
   2   0.0000E+00   0.0000E+00  -1.1609E+08      0.000
 --------------------------------------------------------------------------------

 
 SOLVING FOR HEAD 
     6 ITERATIONS FOR TIME STEP  39 IN STRESS PERIOD    1

 HEAD/DRAWDOWN PRINTOUT FLAG = 0     TOTAL BUDGET PRINTOUT FLAG = 0
 CELL-BY-CELL FLOW TERM FLAG = 1

 OUTPUT FLAGS FOR ALL LAYERS ARE THE SAME:
   HEAD    DRAWDOWN  HEAD  DRAWDOWN
 PRINTOUT  PRINTOUT  SAVE    SAVE
 ----------------------------------
     0         0       0       0



 STREAM LISTING     PERIOD      1   STEP       39

 LAYER ROW COL. STREAM  RCH.  FLOW INTO     FLOW TO   FLOW OUT OF   OVRLND.     DIRECT     STREAM       STREAM     STREAM     STREAM   STREAMBED  STREAMBED
                SEG.NO.  NO.  STRM. RCH.    AQUIFER    STRM. RCH.    RUNOFF     PRECIP       ET          HEAD       DEPTH      WIDTH   CONDCTNC.   GRADIENT

   1    2    5     1     1    6.9120E+05 -7.3734E+04   7.6493E+05  0.000E+00  0.000E+00  0.000E+00  1.25327E+02  1.378E+00  5.000E+00  5.000E+03 -2.949E+01
   1    3    5     1     2    7.6493E+05 -3.9523E+04   8.0446E+05  0.000E+00  0.000E+00  0.000E+00  1.24287E+02  1.442E+00  5.000E+00  5.000E+03 -1.581E+01
   1    4    5     1     3    8.0446E+05 -2.5431E+04   8.2989E+05  0.000E+00  0.000E+00  0.000E+00  1.23219E+02  1.477E+00  5.000E+00  5.000E+03 -1.017E+01
   1    4    6     1     4    8.2989E+05 -2.3311E+04   8.5320E+05  0.000E+00  0.000E+00  0.000E+00  1.22141E+02  1.503E+00  5.000E+00  5.000E+03 -9.325E+00
   1    4    7     1     5    8.5320E+05 -1.1985E+04   8.6519E+05  0.000E+00  0.000E+00  0.000E+00  1.21333E+02  1.522E+00  5.000E+00  2.500E+03 -9.588E+00
   1    4    8     1     6    8.6519E+05 -1.9615E+04   8.8480E+05  0.000E+00  0.000E+00  0.000E+00  1.20660E+02  1.539E+00  5.000E+00  3.750E+03 -1.046E+01
   1    5    8     1     7    8.8480E+05 -1.6580E+04   9.0138E+05  0.000E+00  0.000E+00  0.000E+00  1.19713E+02  1.558E+00  5.000E+00  5.000E+03 -6.632E+00
   1    6    8     1     8    9.0138E+05 -1.0935E+04   9.1232E+05  0.000E+00  0.000E+00  0.000E+00  1.18624E+02  1.572E+00  5.000E+00  5.000E+03 -4.374E+00
   1   12    9     2     1    1.0285E+06 -1.3488E+04   1.0420E+06  0.000E+00  0.000E+00  0.000E+00  1.16300E+02  1.861E+00  5.000E+00  5.000E+03 -5.395E+00
   1   13    9     2     2    1.0420E+06 -1.9656E+04   1.0617E+06  0.000E+00  0.000E+00  0.000E+00  1.15497E+02  1.878E+00  5.000E+00  5.000E+03 -7.862E+00
   1   14   10     2     3    1.0617E+06 -1.0670E+04   1.0723E+06  0.000E+00  0.000E+00  0.000E+00  1.14874E+02  1.895E+00  5.000E+00  2.795E+03 -7.635E+00
   1   14   10     2     4    1.0723E+06 -1.1919E+04   1.0843E+06  0.000E+00  0.000E+00  0.000E+00  1.14427E+02  1.907E+00  5.000E+00  2.795E+03 -8.529E+00
   1   15   10     2     5    1.0843E+06 -2.0234E+04   1.1045E+06  0.000E+00  0.000E+00  0.000E+00  1.13805E+02  1.924E+00  5.000E+00  5.000E+03 -8.094E+00
   1   16   10     2     6    1.1045E+06 -1.4468E+04   1.1190E+06  0.000E+00  0.000E+00  0.000E+00  1.13002E+02  1.942E+00  5.000E+00  5.000E+03 -5.787E+00
   1   22   10     3     1    1.2624E+06 -1.6675E+04   1.2791E+06  0.000E+00  0.000E+00  0.000E+00  1.10972E+02  2.016E+00  5.000E+00  5.000E+03 -6.670E+00
   1   23   10     3     2    1.2791E+06 -2.2555E+04   1.3016E+06  0.000E+00  0.000E+00  0.000E+00  1.10163E+02  2.035E+00  5.000E+00  3.750E+03 -1.203E+01
   1   23   11     3     3    1.3016E+06 -1.4640E+04   1.3163E+06  0.000E+00  0.000E+00  0.000E+00  1.09589E+02  2.052E+00  5.000E+00  2.500E+03 -1.171E+01
   1   23   12     3     4    1.3163E+06 -3.1020E+04   1.3473E+06  0.000E+00  0.000E+00  0.000E+00  1.08901E+02  2.074E+00  5.000E+00  5.000E+03 -1.241E+01
   1   23   13     3     5    1.3473E+06 -3.4386E+04   1.3817E+06  0.000E+00  0.000E+00  0.000E+00  1.07986E+02  2.104E+00  5.000E+00  5.000E+03 -1.375E+01
   1   23   14     3     6    1.3817E+06 -3.9276E+04   1.4210E+06  0.000E+00  0.000E+00  0.000E+00  1.07074E+02  2.138E+00  5.000E+00  5.000E+03 -1.571E+01
   1   23   15     3     7    1.4210E+06 -5.0868E+04   1.4718E+06  0.000E+00  0.000E+00  0.000E+00  1.06169E+02  2.179E+00  5.000E+00  5.000E+03 -2.035E+01
   1   23   16     3     8    1.4718E+06 -8.6178E+04   1.5580E+06  0.000E+00  0.000E+00  0.000E+00  1.05285E+02  2.241E+00  5.000E+00  5.000E+03 -3.447E+01





     0  LAKE CELLS ARE DRY.

 PERIOD     1     TIME STEP    39     TIME STEP LENGTH  5.2965E+00
 PERIOD TIME  1.8818E+02     TOTAL SIMULATION TIME  1.8818E+02


                 HYDROLOGIC BUDGET SUMMARIES FOR SIMULATED LAKES
     (ALL FLUID FLUXES ARE VOLUMES ADDED TO THE LAKE DURING PRESENT TIME STEP)
     -------------------------------------------------------------------------
 LAKE    STAGE         VOLUME     VOL.CHANGE      PRECIP     EVAPORATION        RUNOFF
   1   116.7034     8.3145E+07    5.6536E+04    3.8400E+05    3.4096E+05    0.0000E+00
   2   111.4370     5.0231E+07    7.4508E+04    3.8400E+05    3.4096E+05    0.0000E+00

            GROUND WATER            SURFACE WATER        WATER
 LAKE    INFLOW     OUTFLOW      INFLOW     OUTFLOW       USE
   1  6.2906E+05  0.0000E+00  4.8321E+06  5.4477E+06  0.0000E+00
   2  7.9125E+05  0.0000E+00  5.9266E+06  6.6864E+06  0.0000E+00

      CONNECTED LAKE   TIME-STEP         STAGE-CHANGE          PERCENT
 LAKE    INFLUX      SURFACE AREA   TIME STEP  CUMULATIVE    DISCREPANCY
   1   0.0000E+00     6.2500E+06   9.0454E-03 -1.3297E+01       0.000
   2   0.0000E+00     6.2500E+06   1.1922E-02 -1.8563E+01       0.000
 --------------------------------------------------------------------------------



            CUMULATIVE HYDROLOGIC BUDGET SUMMARIES FOR SIMULATED LAKES
     (ALL FLUID FLUXES ARE SUMS OF VOLUMES ADDED TO THE LAKE SINCE INITIAL TIME)
     ---------------------------------------------------------------------------
 LAKE       PRECIP       EVAP       RUNOFF
   1     1.3643E+07  1.2114E+07  0.0000E+00
   2     1.3643E+07  1.2114E+07  0.0000E+00

            GROUND WATER            SURFACE WATER
 LAKE    INFLOW     OUTFLOW      INFLOW     OUTFLOW
   1  1.1507E+07  1.5644E+06  1.4703E+08  2.4161E+08
   2  2.0186E+07  1.4259E+06  2.5273E+08  3.8904E+08

         WATER    CONNECTED LAKE   CHANGE       PERCENT
 LAKE     USE         INFLUX       IN VOL.    DISCREPANCY
   1   0.0000E+00   0.0000E+00  -8.3103E+07      0.000
   2   0.0000E+00   0.0000E+00  -1.1602E+08      0.000
 --------------------------------------------------------------------------------

 
 SOLVING FOR HEAD 
     6 ITERATIONS FOR TIME STEP  40 IN STRESS PERIOD    1

 HEAD/DRAWDOWN PRINTOUT FLAG = 1     TOTAL BUDGET PRINTOUT FLAG = 1
 CELL-BY-CELL FLOW TERM FLAG = 1

 OUTPUT FLAGS FOR EACH LAYER:
          HEAD    DRAWDOWN  HEAD  DRAWDOWN
 LAYER  PRINTOUT  PRINTOUT  SAVE    SAVE
 -----------------------------------------
    1       0         0       0       0
    2       0         0       0       0
    3       0         0       0       0
    4       0         0       0       0
    5       1         0       0       0



 STREAM LISTING     PERIOD      1   STEP       40

 LAYER ROW COL. STREAM  RCH.  FLOW INTO     FLOW TO   FLOW OUT OF   OVRLND.     DIRECT     STREAM       STREAM     STREAM     STREAM   STREAMBED  STREAMBED
                SEG.NO.  NO.  STRM. RCH.    AQUIFER    STRM. RCH.    RUNOFF     PRECIP       ET          HEAD       DEPTH      WIDTH   CONDCTNC.   GRADIENT

   1    2    5     1     1    6.9120E+05 -7.4085E+04   7.6529E+05  0.000E+00  0.000E+00  0.000E+00  1.25327E+02  1.379E+00  5.000E+00  5.000E+03 -2.963E+01
   1    3    5     1     2    7.6529E+05 -4.0367E+04   8.0565E+05  0.000E+00  0.000E+00  0.000E+00  1.24287E+02  1.443E+00  5.000E+00  5.000E+03 -1.615E+01
   1    4    5     1     3    8.0565E+05 -2.6461E+04   8.3211E+05  0.000E+00  0.000E+00  0.000E+00  1.23220E+02  1.479E+00  5.000E+00  5.000E+03 -1.058E+01
   1    4    6     1     4    8.3211E+05 -2.4023E+04   8.5614E+05  0.000E+00  0.000E+00  0.000E+00  1.22144E+02  1.506E+00  5.000E+00  5.000E+03 -9.609E+00
   1    4    7     1     5    8.5614E+05 -1.2328E+04   8.6847E+05  0.000E+00  0.000E+00  0.000E+00  1.21336E+02  1.526E+00  5.000E+00  2.500E+03 -9.862E+00
   1    4    8     1     6    8.6847E+05 -2.0192E+04   8.8866E+05  0.000E+00  0.000E+00  0.000E+00  1.20664E+02  1.543E+00  5.000E+00  3.750E+03 -1.077E+01
   1    5    8     1     7    8.8866E+05 -1.7115E+04   9.0577E+05  0.000E+00  0.000E+00  0.000E+00  1.19718E+02  1.562E+00  5.000E+00  5.000E+03 -6.846E+00
   1    6    8     1     8    9.0577E+05 -1.1250E+04   9.1702E+05  0.000E+00  0.000E+00  0.000E+00  1.18629E+02  1.577E+00  5.000E+00  5.000E+03 -4.500E+00
   1   12    9     2     1    1.0368E+06 -1.3702E+04   1.0505E+06  0.000E+00  0.000E+00  0.000E+00  1.16309E+02  1.870E+00  5.000E+00  5.000E+03 -5.481E+00
   1   13    9     2     2    1.0505E+06 -2.0003E+04   1.0705E+06  0.000E+00  0.000E+00  0.000E+00  1.15507E+02  1.888E+00  5.000E+00  5.000E+03 -8.001E+00
   1   14   10     2     3    1.0705E+06 -1.0865E+04   1.0814E+06  0.000E+00  0.000E+00  0.000E+00  1.14883E+02  1.904E+00  5.000E+00  2.795E+03 -7.775E+00
   1   14   10     2     4    1.0814E+06 -1.2113E+04   1.0935E+06  0.000E+00  0.000E+00  0.000E+00  1.14437E+02  1.916E+00  5.000E+00  2.795E+03 -8.668E+00
   1   15   10     2     5    1.0935E+06 -2.0541E+04   1.1140E+06  0.000E+00  0.000E+00  0.000E+00  1.13814E+02  1.934E+00  5.000E+00  5.000E+03 -8.216E+00
   1   16   10     2     6    1.1140E+06 -1.4655E+04   1.1287E+06  0.000E+00  0.000E+00  0.000E+00  1.13012E+02  1.952E+00  5.000E+00  5.000E+03 -5.862E+00
   1   22   10     3     1    1.2748E+06 -1.6840E+04   1.2917E+06  0.000E+00  0.000E+00  0.000E+00  1.10984E+02  2.028E+00  5.000E+00  5.000E+03 -6.736E+00
   1   23   10     3     2    1.2917E+06 -2.2936E+04   1.3146E+06  0.000E+00  0.000E+00  0.000E+00  1.10175E+02  2.047E+00  5.000E+00  3.750E+03 -1.223E+01
   1   23   11     3     3    1.3146E+06 -1.4851E+04   1.3295E+06  0.000E+00  0.000E+00  0.000E+00  1.09602E+02  2.065E+00  5.000E+00  2.500E+03 -1.188E+01
   1   23   12     3     4    1.3295E+06 -3.1417E+04   1.3609E+06  0.000E+00  0.000E+00  0.000E+00  1.08914E+02  2.086E+00  5.000E+00  5.000E+03 -1.257E+01
   1   23   13     3     5    1.3609E+06 -3.4832E+04   1.3957E+06  0.000E+00  0.000E+00  0.000E+00  1.07999E+02  2.117E+00  5.000E+00  5.000E+03 -1.393E+01
   1   23   14     3     6    1.3957E+06 -3.9776E+04   1.4355E+06  0.000E+00  0.000E+00  0.000E+00  1.07087E+02  2.151E+00  5.000E+00  5.000E+03 -1.591E+01
   1   23   15     3     7    1.4355E+06 -5.1325E+04   1.4868E+06  0.000E+00  0.000E+00  0.000E+00  1.06183E+02  2.192E+00  5.000E+00  5.000E+03 -2.053E+01
   1   23   16     3     8    1.4868E+06 -8.6379E+04   1.5732E+06  0.000E+00  0.000E+00  0.000E+00  1.05298E+02  2.254E+00  5.000E+00  5.000E+03 -3.455E+01





     0  LAKE CELLS ARE DRY.

 PERIOD     1     TIME STEP    40     TIME STEP LENGTH  5.3230E+00
 PERIOD TIME  1.9351E+02     TOTAL SIMULATION TIME  1.9351E+02


                 HYDROLOGIC BUDGET SUMMARIES FOR SIMULATED LAKES
     (ALL FLUID FLUXES ARE VOLUMES ADDED TO THE LAKE DURING PRESENT TIME STEP)
     -------------------------------------------------------------------------
 LAKE    STAGE         VOLUME     VOL.CHANGE      PRECIP     EVAPORATION        RUNOFF
   1   116.7122     8.3201E+07    5.5312E+04    3.8592E+05    3.4267E+05    0.0000E+00
   2   111.4488     5.0304E+07    7.3712E+04    3.8592E+05    3.4267E+05    0.0000E+00

            GROUND WATER            SURFACE WATER        WATER
 LAKE    INFLOW     OUTFLOW      INFLOW     OUTFLOW       USE
   1  6.4955E+05  0.0000E+00  4.8813E+06  5.5188E+06  0.0000E+00
   2  8.0858E+05  0.0000E+00  6.0079E+06  6.7860E+06  0.0000E+00

      CONNECTED LAKE   TIME-STEP         STAGE-CHANGE          PERCENT
 LAKE    INFLUX      SURFACE AREA   TIME STEP  CUMULATIVE    DISCREPANCY
   1   0.0000E+00     6.2500E+06   8.8495E-03 -1.3288E+01       0.000
   2   0.0000E+00     6.2500E+06   1.1795E-02 -1.8551E+01       0.000
 --------------------------------------------------------------------------------



            CUMULATIVE HYDROLOGIC BUDGET SUMMARIES FOR SIMULATED LAKES
     (ALL FLUID FLUXES ARE SUMS OF VOLUMES ADDED TO THE LAKE SINCE INITIAL TIME)
     ---------------------------------------------------------------------------
 LAKE       PRECIP       EVAP       RUNOFF
   1     1.4029E+07  1.2457E+07  0.0000E+00
   2     1.4029E+07  1.2457E+07  0.0000E+00

            GROUND WATER            SURFACE WATER
 LAKE    INFLOW     OUTFLOW      INFLOW     OUTFLOW
   1  1.2156E+07  1.5644E+06  1.5192E+08  2.4713E+08
   2  2.0994E+07  1.4259E+06  2.5874E+08  3.9582E+08

         WATER    CONNECTED LAKE   CHANGE       PERCENT
 LAKE     USE         INFLUX       IN VOL.    DISCREPANCY
   1   0.0000E+00   0.0000E+00  -8.3048E+07      0.000
   2   0.0000E+00   0.0000E+00  -1.1594E+08      0.000
 --------------------------------------------------------------------------------

1
              HEAD IN LAYER   5 AT END OF TIME STEP  40 IN STRESS PERIOD    1
  ---------------------------------------------------------------------------

          1      2      3      4      5      6      7      8      9     10
 .........................................................................
   1   160.0  158.9  157.3  155.8  154.2  152.7  151.5  150.8  150.0  149.2
   2   160.0  157.3  153.4  149.0  140.2  144.9  145.1  144.9  144.4  143.9
   3   160.0  155.3  148.5  141.8  132.4  135.8  136.2  136.3  136.4  136.4
   4   160.0  154.1  145.2  137.0  128.5  127.0  126.3  126.1  128.7  129.8
   5   160.0  153.4  143.4  134.9  129.4  126.9  125.0  123.2  125.1  126.1
   6   160.0  153.1  142.6  133.9  128.7  125.5  122.6  120.9  121.9  122.7
   7   160.0  153.0  142.4  133.5  128.1  123.9  117.1  116.9  116.9  116.9
   8   160.0  152.9  142.3  133.3  127.9  123.4  116.9  116.7  116.7  116.7
   9   160.0  152.9  142.2  133.3  127.8  123.2  116.9  116.7  116.7  116.7
  10   160.0  152.9  142.2  133.2  127.8  123.3  116.9  116.7  116.7  116.7
  11   160.0  152.9  142.2  133.2  127.9  123.7  117.1  116.8  116.8  116.8
  12   160.0  152.9  142.2  133.3  128.2  125.0  122.3  120.8  119.1  120.7
  13   160.0  152.9  142.2  133.3  128.4  125.8  123.9  122.2  119.5  121.5
  14   160.0  152.9  142.2  133.3  128.4  125.9  124.3  123.0  121.2  118.8
  15   160.0  152.9  142.1  133.2  128.1  125.3  123.5  122.1  120.4  117.9
  16   160.0  152.9  142.1  133.1  127.6  123.6  120.3  118.8  117.5  116.0
  17   160.0  152.9  142.1  132.9  127.0  121.3  112.0  111.7  111.6  111.6
  18   160.0  152.9  142.1  132.9  126.8  120.6  111.7  111.5  111.5  111.5
  19   160.0  152.9  142.1  132.9  126.7  120.4  111.7  111.5  111.4  111.5
  20   160.0  152.9  142.1  133.0  126.8  120.6  111.7  111.5  111.4  111.5
  21   160.0  153.0  142.3  133.2  127.2  121.4  112.0  111.7  111.6  111.6
  22   160.0  153.1  142.5  133.6  128.1  124.1  120.5  118.8  116.9  114.4
  23   160.0  153.4  143.5  135.1  130.2  127.3  125.2  123.5  120.9  116.3
  24   160.0  154.1  145.5  138.4  134.1  131.8  130.4  129.5  128.5  127.5
  25   160.0  155.4  149.0  144.0  140.8  138.8  137.7  137.0  136.4  135.7
  26   160.0  157.4  153.8  150.9  148.8  147.0  145.9  145.2  144.5  143.8
  27   160.0  158.9  157.3  155.8  154.2  152.7  151.5  150.8  150.0  149.2
1
              HEAD IN LAYER   5 AT END OF TIME STEP  40 IN STRESS PERIOD    1
  ---------------------------------------------------------------------------

         11     12     13     14     15     16     17
 ....................................................
   1   148.5  147.3  145.8  144.2  142.7  141.1  140.0
   2   143.3  142.4  141.3  140.3  139.7  139.7  140.0
   3   136.2  135.7  135.3  135.3  136.1  138.1  140.0
   4   130.3  130.6  130.9  131.8  133.8  137.2  140.0
   5   126.8  127.5  128.4  130.0  132.7  136.7  140.0
   6   123.4  125.4  127.1  129.2  132.2  136.6  140.0
   7   117.1  123.5  126.5  128.9  132.1  136.5  140.0
   8   116.9  123.0  126.3  128.8  132.1  136.5  140.0
   9   116.9  122.8  126.2  128.8  132.0  136.5  140.0
  10   116.9  122.9  126.2  128.8  132.0  136.5  140.0
  11   117.1  123.2  126.3  128.8  132.0  136.5  140.0
  12   122.0  124.5  126.6  128.8  132.0  136.5  140.0
  13   123.1  125.0  126.7  128.9  132.0  136.5  140.0
  14   121.8  124.6  126.6  128.8  132.0  136.5  140.0
  15   120.9  123.9  126.3  128.7  132.0  136.5  140.0
  16   118.5  122.5  125.8  128.5  131.9  136.4  140.0
  17   111.9  120.6  125.2  128.3  131.8  136.4  140.0
  18   111.7  119.9  124.8  128.0  131.6  136.3  140.0
  19   111.7  119.5  124.4  127.6  131.3  136.1  140.0
  20   111.7  119.3  124.0  127.0  130.7  135.8  140.0
  21   111.8  119.2  123.2  126.0  129.7  135.1  140.0
  22   116.3  119.2  121.4  123.4  126.9  133.0  140.0
  23   115.6  115.2  115.0  115.1  116.5  122.6  140.0
  24   126.8  126.2  126.0  126.6  128.8  133.6  140.0
  25   135.2  134.5  133.8  133.7  134.6  137.2  140.0
  26   143.1  142.2  140.9  140.0  139.4  139.5  140.0
  27   148.5  147.3  145.8  144.2  142.7  141.1  140.0
1
  VOLUMETRIC BUDGET FOR ENTIRE MODEL AT END OF TIME STEP 40 IN STRESS PERIOD   1
  ------------------------------------------------------------------------------

     CUMULATIVE VOLUMES      L**3       RATES FOR THIS TIME STEP      L**3/T
     ------------------                 ------------------------

           IN:                                      IN:
           ---                                      ---
             STORAGE =     2934567.7500               STORAGE =           0.0000
       CONSTANT HEAD =   511311328.0000         CONSTANT HEAD =     1240980.7500
                  ET =           0.0000                    ET =           0.0000
            RECHARGE =   533113216.0000              RECHARGE =     2755000.0000
     SPECIFIED FLOWS =           0.0000       SPECIFIED FLOWS =           0.0000
      STREAM LEAKAGE =     3694574.2500        STREAM LEAKAGE =           0.0000
       LAKE  SEEPAGE =     2990331.7500         LAKE  SEEPAGE =           0.0000

            TOTAL IN =  1054044032.0000              TOTAL IN =     3995980.7500

          OUT:                                     OUT:
          ----                                     ----
             STORAGE =   881423040.0000               STORAGE =     2415452.2500
       CONSTANT HEAD =           0.0000         CONSTANT HEAD =           0.0000
                  ET =    58554656.0000                    ET =      690485.3125
            RECHARGE =           0.0000              RECHARGE =           0.0000
     SPECIFIED FLOWS =           0.0000       SPECIFIED FLOWS =           0.0000
      STREAM LEAKAGE =    80913816.0000        STREAM LEAKAGE =      616056.1875
       LAKE  SEEPAGE =    33150526.0000         LAKE  SEEPAGE =      273929.5000

           TOTAL OUT =  1054042048.0000             TOTAL OUT =     3995923.2500

            IN - OUT =        1984.0000              IN - OUT =          57.5000

 PERCENT DISCREPANCY =           0.00     PERCENT DISCREPANCY =           0.00






          TIME SUMMARY AT END OF TIME STEP  40 IN STRESS PERIOD    1
                    SECONDS     MINUTES      HOURS       DAYS        YEARS
                    -----------------------------------------------------------
   TIME STEP LENGTH 4.59907E+05  7665.1      127.75      5.3230     1.45736E-02
 STRESS PERIOD TIME 1.67190E+07 2.78651E+05  4644.2      193.51     0.52979    
         TOTAL TIME 1.67190E+07 2.78651E+05  4644.2      193.51     0.52979    
1
 
 SOLVING FOR HEAD 
     6 ITERATIONS FOR TIME STEP  41 IN STRESS PERIOD    1

 HEAD/DRAWDOWN PRINTOUT FLAG = 0     TOTAL BUDGET PRINTOUT FLAG = 0
 CELL-BY-CELL FLOW TERM FLAG = 1

 OUTPUT FLAGS FOR ALL LAYERS ARE THE SAME:
   HEAD    DRAWDOWN  HEAD  DRAWDOWN
 PRINTOUT  PRINTOUT  SAVE    SAVE
 ----------------------------------
     0         0       0       0



 STREAM LISTING     PERIOD      1   STEP       41

 LAYER ROW COL. STREAM  RCH.  FLOW INTO     FLOW TO   FLOW OUT OF   OVRLND.     DIRECT     STREAM       STREAM     STREAM     STREAM   STREAMBED  STREAMBED
                SEG.NO.  NO.  STRM. RCH.    AQUIFER    STRM. RCH.    RUNOFF     PRECIP       ET          HEAD       DEPTH      WIDTH   CONDCTNC.   GRADIENT

   1    2    5     1     1    6.9120E+05 -7.4417E+04   7.6562E+05  0.000E+00  0.000E+00  0.000E+00  1.25327E+02  1.379E+00  5.000E+00  5.000E+03 -2.977E+01
   1    3    5     1     2    7.6562E+05 -4.1171E+04   8.0679E+05  0.000E+00  0.000E+00  0.000E+00  1.24288E+02  1.443E+00  5.000E+00  5.000E+03 -1.647E+01
   1    4    5     1     3    8.0679E+05 -2.7469E+04   8.3426E+05  0.000E+00  0.000E+00  0.000E+00  1.23222E+02  1.481E+00  5.000E+00  5.000E+03 -1.099E+01
   1    4    6     1     4    8.3426E+05 -2.4715E+04   8.5897E+05  0.000E+00  0.000E+00  0.000E+00  1.22147E+02  1.509E+00  5.000E+00  5.000E+03 -9.886E+00
   1    4    7     1     5    8.5897E+05 -1.2661E+04   8.7163E+05  0.000E+00  0.000E+00  0.000E+00  1.21339E+02  1.529E+00  5.000E+00  2.500E+03 -1.013E+01
   1    4    8     1     6    8.7163E+05 -2.0752E+04   8.9238E+05  0.000E+00  0.000E+00  0.000E+00  1.20667E+02  1.546E+00  5.000E+00  3.750E+03 -1.107E+01
   1    5    8     1     7    8.9238E+05 -1.7644E+04   9.1003E+05  0.000E+00  0.000E+00  0.000E+00  1.19722E+02  1.567E+00  5.000E+00  5.000E+03 -7.057E+00
   1    6    8     1     8    9.1003E+05 -1.1564E+04   9.2159E+05  0.000E+00  0.000E+00  0.000E+00  1.18633E+02  1.582E+00  5.000E+00  5.000E+03 -4.626E+00
   1   12    9     2     1    1.0449E+06 -1.3916E+04   1.0588E+06  0.000E+00  0.000E+00  0.000E+00  1.16318E+02  1.878E+00  5.000E+00  5.000E+03 -5.567E+00
   1   13    9     2     2    1.0588E+06 -2.0351E+04   1.0791E+06  0.000E+00  0.000E+00  0.000E+00  1.15516E+02  1.897E+00  5.000E+00  5.000E+03 -8.140E+00
   1   14   10     2     3    1.0791E+06 -1.1060E+04   1.0902E+06  0.000E+00  0.000E+00  0.000E+00  1.14893E+02  1.913E+00  5.000E+00  2.795E+03 -7.914E+00
   1   14   10     2     4    1.0902E+06 -1.2308E+04   1.1025E+06  0.000E+00  0.000E+00  0.000E+00  1.14446E+02  1.926E+00  5.000E+00  2.795E+03 -8.807E+00
   1   15   10     2     5    1.1025E+06 -2.0848E+04   1.1234E+06  0.000E+00  0.000E+00  0.000E+00  1.13824E+02  1.943E+00  5.000E+00  5.000E+03 -8.339E+00
   1   16   10     2     6    1.1234E+06 -1.4843E+04   1.1382E+06  0.000E+00  0.000E+00  0.000E+00  1.13022E+02  1.962E+00  5.000E+00  5.000E+03 -5.937E+00
   1   22   10     3     1    1.2871E+06 -1.7010E+04   1.3042E+06  0.000E+00  0.000E+00  0.000E+00  1.10996E+02  2.040E+00  5.000E+00  5.000E+03 -6.804E+00
   1   23   10     3     2    1.3042E+06 -2.3320E+04   1.3275E+06  0.000E+00  0.000E+00  0.000E+00  1.10187E+02  2.059E+00  5.000E+00  3.750E+03 -1.244E+01
   1   23   11     3     3    1.3275E+06 -1.5063E+04   1.3425E+06  0.000E+00  0.000E+00  0.000E+00  1.09614E+02  2.077E+00  5.000E+00  2.500E+03 -1.205E+01
   1   23   12     3     4    1.3425E+06 -3.1814E+04   1.3744E+06  0.000E+00  0.000E+00  0.000E+00  1.08926E+02  2.099E+00  5.000E+00  5.000E+03 -1.273E+01
   1   23   13     3     5    1.3744E+06 -3.5277E+04   1.4096E+06  0.000E+00  0.000E+00  0.000E+00  1.08011E+02  2.130E+00  5.000E+00  5.000E+03 -1.411E+01
   1   23   14     3     6    1.4096E+06 -4.0271E+04   1.4499E+06  0.000E+00  0.000E+00  0.000E+00  1.07100E+02  2.164E+00  5.000E+00  5.000E+03 -1.611E+01
   1   23   15     3     7    1.4499E+06 -5.1767E+04   1.5017E+06  0.000E+00  0.000E+00  0.000E+00  1.06196E+02  2.206E+00  5.000E+00  5.000E+03 -2.071E+01
   1   23   16     3     8    1.5017E+06 -8.6569E+04   1.5882E+06  0.000E+00  0.000E+00  0.000E+00  1.05311E+02  2.267E+00  5.000E+00  5.000E+03 -3.463E+01





     0  LAKE CELLS ARE DRY.

 PERIOD     1     TIME STEP    41     TIME STEP LENGTH  5.3496E+00
 PERIOD TIME  1.9886E+02     TOTAL SIMULATION TIME  1.9886E+02


                 HYDROLOGIC BUDGET SUMMARIES FOR SIMULATED LAKES
     (ALL FLUID FLUXES ARE VOLUMES ADDED TO THE LAKE DURING PRESENT TIME STEP)
     -------------------------------------------------------------------------
 LAKE    STAGE         VOLUME     VOL.CHANGE      PRECIP     EVAPORATION        RUNOFF
   1   116.7209     8.3255E+07    5.4280E+04    3.8785E+05    3.4438E+05    0.0000E+00
   2   111.4605     5.0377E+07    7.3012E+04    3.8785E+05    3.4438E+05    0.0000E+00

            GROUND WATER            SURFACE WATER        WATER
 LAKE    INFLOW     OUTFLOW      INFLOW     OUTFLOW       USE
   1  6.7036E+05  0.0000E+00  4.9302E+06  5.5897E+06  0.0000E+00
   2  8.2632E+05  0.0000E+00  6.0890E+06  6.8857E+06  0.0000E+00

      CONNECTED LAKE   TIME-STEP         STAGE-CHANGE          PERCENT
 LAKE    INFLUX      SURFACE AREA   TIME STEP  CUMULATIVE    DISCREPANCY
   1   0.0000E+00     6.2500E+06   8.6856E-03 -1.3279E+01       0.000
   2   0.0000E+00     6.2500E+06   1.1682E-02 -1.8539E+01       0.000
 --------------------------------------------------------------------------------



            CUMULATIVE HYDROLOGIC BUDGET SUMMARIES FOR SIMULATED LAKES
     (ALL FLUID FLUXES ARE SUMS OF VOLUMES ADDED TO THE LAKE SINCE INITIAL TIME)
     ---------------------------------------------------------------------------
 LAKE       PRECIP       EVAP       RUNOFF
   1     1.4417E+07  1.2801E+07  0.0000E+00
   2     1.4417E+07  1.2801E+07  0.0000E+00

            GROUND WATER            SURFACE WATER
 LAKE    INFLOW     OUTFLOW      INFLOW     OUTFLOW
   1  1.2826E+07  1.5644E+06  1.5685E+08  2.5272E+08
   2  2.1821E+07  1.4259E+06  2.6483E+08  4.0271E+08

         WATER    CONNECTED LAKE   CHANGE       PERCENT
 LAKE     USE         INFLUX       IN VOL.    DISCREPANCY
   1   0.0000E+00   0.0000E+00  -8.2994E+07      0.000
   2   0.0000E+00   0.0000E+00  -1.1587E+08      0.000
 --------------------------------------------------------------------------------

 
 SOLVING FOR HEAD 
     6 ITERATIONS FOR TIME STEP  42 IN STRESS PERIOD    1

 HEAD/DRAWDOWN PRINTOUT FLAG = 0     TOTAL BUDGET PRINTOUT FLAG = 0
 CELL-BY-CELL FLOW TERM FLAG = 1

 OUTPUT FLAGS FOR ALL LAYERS ARE THE SAME:
   HEAD    DRAWDOWN  HEAD  DRAWDOWN
 PRINTOUT  PRINTOUT  SAVE    SAVE
 ----------------------------------
     0         0       0       0



 STREAM LISTING     PERIOD      1   STEP       42

 LAYER ROW COL. STREAM  RCH.  FLOW INTO     FLOW TO   FLOW OUT OF   OVRLND.     DIRECT     STREAM       STREAM     STREAM     STREAM   STREAMBED  STREAMBED
                SEG.NO.  NO.  STRM. RCH.    AQUIFER    STRM. RCH.    RUNOFF     PRECIP       ET          HEAD       DEPTH      WIDTH   CONDCTNC.   GRADIENT

   1    2    5     1     1    6.9120E+05 -7.4729E+04   7.6593E+05  0.000E+00  0.000E+00  0.000E+00  1.25327E+02  1.379E+00  5.000E+00  5.000E+03 -2.989E+01
   1    3    5     1     2    7.6593E+05 -4.1936E+04   8.0786E+05  0.000E+00  0.000E+00  0.000E+00  1.24289E+02  1.444E+00  5.000E+00  5.000E+03 -1.677E+01
   1    4    5     1     3    8.0786E+05 -2.8452E+04   8.3632E+05  0.000E+00  0.000E+00  0.000E+00  1.23224E+02  1.483E+00  5.000E+00  5.000E+03 -1.138E+01
   1    4    6     1     4    8.3632E+05 -2.5388E+04   8.6171E+05  0.000E+00  0.000E+00  0.000E+00  1.22149E+02  1.511E+00  5.000E+00  5.000E+03 -1.016E+01
   1    4    7     1     5    8.6171E+05 -1.2983E+04   8.7469E+05  0.000E+00  0.000E+00  0.000E+00  1.21342E+02  1.532E+00  5.000E+00  2.500E+03 -1.039E+01
   1    4    8     1     6    8.7469E+05 -2.1294E+04   8.9598E+05  0.000E+00  0.000E+00  0.000E+00  1.20671E+02  1.550E+00  5.000E+00  3.750E+03 -1.136E+01
   1    5    8     1     7    8.9598E+05 -1.8167E+04   9.1415E+05  0.000E+00  0.000E+00  0.000E+00  1.19726E+02  1.571E+00  5.000E+00  5.000E+03 -7.267E+00
   1    6    8     1     8    9.1415E+05 -1.1877E+04   9.2603E+05  0.000E+00  0.000E+00  0.000E+00  1.18638E+02  1.586E+00  5.000E+00  5.000E+03 -4.751E+00
   1   12    9     2     1    1.0528E+06 -1.4131E+04   1.0670E+06  0.000E+00  0.000E+00  0.000E+00  1.16327E+02  1.887E+00  5.000E+00  5.000E+03 -5.652E+00
   1   13    9     2     2    1.0670E+06 -2.0698E+04   1.0877E+06  0.000E+00  0.000E+00  0.000E+00  1.15525E+02  1.906E+00  5.000E+00  5.000E+03 -8.279E+00
   1   14   10     2     3    1.0877E+06 -1.1255E+04   1.0989E+06  0.000E+00  0.000E+00  0.000E+00  1.14902E+02  1.923E+00  5.000E+00  2.795E+03 -8.054E+00
   1   14   10     2     4    1.0989E+06 -1.2503E+04   1.1114E+06  0.000E+00  0.000E+00  0.000E+00  1.14456E+02  1.935E+00  5.000E+00  2.795E+03 -8.946E+00
   1   15   10     2     5    1.1114E+06 -2.1158E+04   1.1326E+06  0.000E+00  0.000E+00  0.000E+00  1.13834E+02  1.953E+00  5.000E+00  5.000E+03 -8.463E+00
   1   16   10     2     6    1.1326E+06 -1.5032E+04   1.1476E+06  0.000E+00  0.000E+00  0.000E+00  1.13032E+02  1.971E+00  5.000E+00  5.000E+03 -6.013E+00
   1   22   10     3     1    1.2993E+06 -1.7185E+04   1.3165E+06  0.000E+00  0.000E+00  0.000E+00  1.11007E+02  2.051E+00  5.000E+00  5.000E+03 -6.874E+00
   1   23   10     3     2    1.3165E+06 -2.3705E+04   1.3402E+06  0.000E+00  0.000E+00  0.000E+00  1.10199E+02  2.071E+00  5.000E+00  3.750E+03 -1.264E+01
   1   23   11     3     3    1.3402E+06 -1.5276E+04   1.3555E+06  0.000E+00  0.000E+00  0.000E+00  1.09626E+02  2.089E+00  5.000E+00  2.500E+03 -1.222E+01
   1   23   12     3     4    1.3555E+06 -3.2212E+04   1.3877E+06  0.000E+00  0.000E+00  0.000E+00  1.08938E+02  2.111E+00  5.000E+00  5.000E+03 -1.288E+01
   1   23   13     3     5    1.3877E+06 -3.5720E+04   1.4234E+06  0.000E+00  0.000E+00  0.000E+00  1.08024E+02  2.142E+00  5.000E+00  5.000E+03 -1.429E+01
   1   23   14     3     6    1.4234E+06 -4.0758E+04   1.4642E+06  0.000E+00  0.000E+00  0.000E+00  1.07113E+02  2.177E+00  5.000E+00  5.000E+03 -1.630E+01
   1   23   15     3     7    1.4642E+06 -5.2194E+04   1.5164E+06  0.000E+00  0.000E+00  0.000E+00  1.06209E+02  2.219E+00  5.000E+00  5.000E+03 -2.088E+01
   1   23   16     3     8    1.5164E+06 -8.6749E+04   1.6031E+06  0.000E+00  0.000E+00  0.000E+00  1.05324E+02  2.280E+00  5.000E+00  5.000E+03 -3.470E+01





     0  LAKE CELLS ARE DRY.

 PERIOD     1     TIME STEP    42     TIME STEP LENGTH  5.3764E+00
 PERIOD TIME  2.0423E+02     TOTAL SIMULATION TIME  2.0423E+02


                 HYDROLOGIC BUDGET SUMMARIES FOR SIMULATED LAKES
     (ALL FLUID FLUXES ARE VOLUMES ADDED TO THE LAKE DURING PRESENT TIME STEP)
     -------------------------------------------------------------------------
 LAKE    STAGE         VOLUME     VOL.CHANGE      PRECIP     EVAPORATION        RUNOFF
   1   116.7295     8.3308E+07    5.3392E+04    3.8979E+05    3.4610E+05    0.0000E+00
   2   111.4721     5.0450E+07    7.2400E+04    3.8979E+05    3.4610E+05    0.0000E+00

            GROUND WATER            SURFACE WATER        WATER
 LAKE    INFLOW     OUTFLOW      INFLOW     OUTFLOW       USE
   1  6.9151E+05  0.0000E+00  4.9787E+06  5.6605E+06  0.0000E+00
   2  8.4446E+05  0.0000E+00  6.1700E+06  6.9858E+06  0.0000E+00

      CONNECTED LAKE   TIME-STEP         STAGE-CHANGE          PERCENT
 LAKE    INFLUX      SURFACE AREA   TIME STEP  CUMULATIVE    DISCREPANCY
   1   0.0000E+00     6.2500E+06   8.5420E-03 -1.3271E+01       0.000
   2   0.0000E+00     6.2500E+06   1.1584E-02 -1.8528E+01       0.000
 --------------------------------------------------------------------------------



            CUMULATIVE HYDROLOGIC BUDGET SUMMARIES FOR SIMULATED LAKES
     (ALL FLUID FLUXES ARE SUMS OF VOLUMES ADDED TO THE LAKE SINCE INITIAL TIME)
     ---------------------------------------------------------------------------
 LAKE       PRECIP       EVAP       RUNOFF
   1     1.4807E+07  1.3148E+07  0.0000E+00
   2     1.4807E+07  1.3148E+07  0.0000E+00

            GROUND WATER            SURFACE WATER
 LAKE    INFLOW     OUTFLOW      INFLOW     OUTFLOW
   1  1.3518E+07  1.5644E+06  1.6182E+08  2.5838E+08
   2  2.2665E+07  1.4259E+06  2.7100E+08  4.0970E+08

         WATER    CONNECTED LAKE   CHANGE       PERCENT
 LAKE     USE         INFLUX       IN VOL.    DISCREPANCY
   1   0.0000E+00   0.0000E+00  -8.2940E+07      0.000
   2   0.0000E+00   0.0000E+00  -1.1580E+08      0.000
 --------------------------------------------------------------------------------

 
 SOLVING FOR HEAD 
     6 ITERATIONS FOR TIME STEP  43 IN STRESS PERIOD    1

 HEAD/DRAWDOWN PRINTOUT FLAG = 0     TOTAL BUDGET PRINTOUT FLAG = 0
 CELL-BY-CELL FLOW TERM FLAG = 1

 OUTPUT FLAGS FOR ALL LAYERS ARE THE SAME:
   HEAD    DRAWDOWN  HEAD  DRAWDOWN
 PRINTOUT  PRINTOUT  SAVE    SAVE
 ----------------------------------
     0         0       0       0



 STREAM LISTING     PERIOD      1   STEP       43

 LAYER ROW COL. STREAM  RCH.  FLOW INTO     FLOW TO   FLOW OUT OF   OVRLND.     DIRECT     STREAM       STREAM     STREAM     STREAM   STREAMBED  STREAMBED
                SEG.NO.  NO.  STRM. RCH.    AQUIFER    STRM. RCH.    RUNOFF     PRECIP       ET          HEAD       DEPTH      WIDTH   CONDCTNC.   GRADIENT

   1    2    5     1     1    6.9120E+05 -7.5022E+04   7.6622E+05  0.000E+00  0.000E+00  0.000E+00  1.25327E+02  1.379E+00  5.000E+00  5.000E+03 -3.001E+01
   1    3    5     1     2    7.6622E+05 -4.2664E+04   8.0889E+05  0.000E+00  0.000E+00  0.000E+00  1.24290E+02  1.445E+00  5.000E+00  5.000E+03 -1.707E+01
   1    4    5     1     3    8.0889E+05 -2.9412E+04   8.3830E+05  0.000E+00  0.000E+00  0.000E+00  1.23226E+02  1.484E+00  5.000E+00  5.000E+03 -1.176E+01
   1    4    6     1     4    8.3830E+05 -2.6042E+04   8.6434E+05  0.000E+00  0.000E+00  0.000E+00  1.22152E+02  1.514E+00  5.000E+00  5.000E+03 -1.042E+01
   1    4    7     1     5    8.6434E+05 -1.3294E+04   8.7763E+05  0.000E+00  0.000E+00  0.000E+00  1.21345E+02  1.535E+00  5.000E+00  2.500E+03 -1.064E+01
   1    4    8     1     6    8.7763E+05 -2.1820E+04   8.9946E+05  0.000E+00  0.000E+00  0.000E+00  1.20674E+02  1.553E+00  5.000E+00  3.750E+03 -1.164E+01
   1    5    8     1     7    8.9946E+05 -1.8684E+04   9.1814E+05  0.000E+00  0.000E+00  0.000E+00  1.19730E+02  1.574E+00  5.000E+00  5.000E+03 -7.474E+00
   1    6    8     1     8    9.1814E+05 -1.2189E+04   9.3033E+05  0.000E+00  0.000E+00  0.000E+00  1.18642E+02  1.590E+00  5.000E+00  5.000E+03 -4.876E+00
   1   12    9     2     1    1.0607E+06 -1.4345E+04   1.0750E+06  0.000E+00  0.000E+00  0.000E+00  1.16335E+02  1.896E+00  5.000E+00  5.000E+03 -5.738E+00
   1   13    9     2     2    1.0750E+06 -2.1046E+04   1.0961E+06  0.000E+00  0.000E+00  0.000E+00  1.15533E+02  1.914E+00  5.000E+00  5.000E+03 -8.418E+00
   1   14   10     2     3    1.0961E+06 -1.1451E+04   1.1075E+06  0.000E+00  0.000E+00  0.000E+00  1.14911E+02  1.931E+00  5.000E+00  2.795E+03 -8.194E+00
   1   14   10     2     4    1.1075E+06 -1.2698E+04   1.1202E+06  0.000E+00  0.000E+00  0.000E+00  1.14465E+02  1.944E+00  5.000E+00  2.795E+03 -9.086E+00
   1   15   10     2     5    1.1202E+06 -2.1468E+04   1.1417E+06  0.000E+00  0.000E+00  0.000E+00  1.13843E+02  1.962E+00  5.000E+00  5.000E+03 -8.587E+00
   1   16   10     2     6    1.1417E+06 -1.5223E+04   1.1569E+06  0.000E+00  0.000E+00  0.000E+00  1.13041E+02  1.981E+00  5.000E+00  5.000E+03 -6.089E+00
   1   22   10     3     1    1.3115E+06 -1.7362E+04   1.3289E+06  0.000E+00  0.000E+00  0.000E+00  1.11019E+02  2.063E+00  5.000E+00  5.000E+03 -6.945E+00
   1   23   10     3     2    1.3289E+06 -2.4093E+04   1.3530E+06  0.000E+00  0.000E+00  0.000E+00  1.10210E+02  2.082E+00  5.000E+00  3.750E+03 -1.285E+01
   1   23   11     3     3    1.3530E+06 -1.5488E+04   1.3684E+06  0.000E+00  0.000E+00  0.000E+00  1.09638E+02  2.101E+00  5.000E+00  2.500E+03 -1.239E+01
   1   23   12     3     4    1.3684E+06 -3.2609E+04   1.4010E+06  0.000E+00  0.000E+00  0.000E+00  1.08951E+02  2.123E+00  5.000E+00  5.000E+03 -1.304E+01
   1   23   13     3     5    1.4010E+06 -3.6160E+04   1.4372E+06  0.000E+00  0.000E+00  0.000E+00  1.08036E+02  2.154E+00  5.000E+00  5.000E+03 -1.446E+01
   1   23   14     3     6    1.4372E+06 -4.1237E+04   1.4784E+06  0.000E+00  0.000E+00  0.000E+00  1.07125E+02  2.189E+00  5.000E+00  5.000E+03 -1.649E+01
   1   23   15     3     7    1.4784E+06 -5.2605E+04   1.5311E+06  0.000E+00  0.000E+00  0.000E+00  1.06222E+02  2.231E+00  5.000E+00  5.000E+03 -2.104E+01
   1   23   16     3     8    1.5311E+06 -8.6920E+04   1.6180E+06  0.000E+00  0.000E+00  0.000E+00  1.05337E+02  2.293E+00  5.000E+00  5.000E+03 -3.477E+01





     0  LAKE CELLS ARE DRY.

 PERIOD     1     TIME STEP    43     TIME STEP LENGTH  5.4032E+00
 PERIOD TIME  2.0964E+02     TOTAL SIMULATION TIME  2.0964E+02


                 HYDROLOGIC BUDGET SUMMARIES FOR SIMULATED LAKES
     (ALL FLUID FLUXES ARE VOLUMES ADDED TO THE LAKE DURING PRESENT TIME STEP)
     -------------------------------------------------------------------------
 LAKE    STAGE         VOLUME     VOL.CHANGE      PRECIP     EVAPORATION        RUNOFF
   1   116.7379     8.3361E+07    5.2536E+04    3.9174E+05    3.4783E+05    0.0000E+00
   2   111.4836     5.0521E+07    7.1588E+04    3.9174E+05    3.4783E+05    0.0000E+00

            GROUND WATER            SURFACE WATER        WATER
 LAKE    INFLOW     OUTFLOW      INFLOW     OUTFLOW       USE
   1  7.1294E+05  0.0000E+00  5.0268E+06  5.7311E+06  0.0000E+00
   2  8.6298E+05  0.0000E+00  6.2510E+06  7.0863E+06  0.0000E+00

      CONNECTED LAKE   TIME-STEP         STAGE-CHANGE          PERCENT
 LAKE    INFLUX      SURFACE AREA   TIME STEP  CUMULATIVE    DISCREPANCY
   1   0.0000E+00     6.2500E+06   8.4060E-03 -1.3262E+01       0.000
   2   0.0000E+00     6.2500E+06   1.1455E-02 -1.8516E+01       0.000
 --------------------------------------------------------------------------------



            CUMULATIVE HYDROLOGIC BUDGET SUMMARIES FOR SIMULATED LAKES
     (ALL FLUID FLUXES ARE SUMS OF VOLUMES ADDED TO THE LAKE SINCE INITIAL TIME)
     ---------------------------------------------------------------------------
 LAKE       PRECIP       EVAP       RUNOFF
   1     1.5199E+07  1.3495E+07  0.0000E+00
   2     1.5199E+07  1.3495E+07  0.0000E+00

            GROUND WATER            SURFACE WATER
 LAKE    INFLOW     OUTFLOW      INFLOW     OUTFLOW
   1  1.4231E+07  1.5644E+06  1.6685E+08  2.6411E+08
   2  2.3528E+07  1.4259E+06  2.7725E+08  4.1678E+08

         WATER    CONNECTED LAKE   CHANGE       PERCENT
 LAKE     USE         INFLUX       IN VOL.    DISCREPANCY
   1   0.0000E+00   0.0000E+00  -8.2888E+07      0.000
   2   0.0000E+00   0.0000E+00  -1.1573E+08      0.000
 --------------------------------------------------------------------------------

 
 SOLVING FOR HEAD 
     6 ITERATIONS FOR TIME STEP  44 IN STRESS PERIOD    1

 HEAD/DRAWDOWN PRINTOUT FLAG = 0     TOTAL BUDGET PRINTOUT FLAG = 0
 CELL-BY-CELL FLOW TERM FLAG = 1

 OUTPUT FLAGS FOR ALL LAYERS ARE THE SAME:
   HEAD    DRAWDOWN  HEAD  DRAWDOWN
 PRINTOUT  PRINTOUT  SAVE    SAVE
 ----------------------------------
     0         0       0       0



 STREAM LISTING     PERIOD      1   STEP       44

 LAYER ROW COL. STREAM  RCH.  FLOW INTO     FLOW TO   FLOW OUT OF   OVRLND.     DIRECT     STREAM       STREAM     STREAM     STREAM   STREAMBED  STREAMBED
                SEG.NO.  NO.  STRM. RCH.    AQUIFER    STRM. RCH.    RUNOFF     PRECIP       ET          HEAD       DEPTH      WIDTH   CONDCTNC.   GRADIENT

   1    2    5     1     1    6.9120E+05 -7.5300E+04   7.6650E+05  0.000E+00  0.000E+00  0.000E+00  1.25328E+02  1.379E+00  5.000E+00  5.000E+03 -3.012E+01
   1    3    5     1     2    7.6650E+05 -4.3356E+04   8.0986E+05  0.000E+00  0.000E+00  0.000E+00  1.24290E+02  1.446E+00  5.000E+00  5.000E+03 -1.734E+01
   1    4    5     1     3    8.0986E+05 -3.0348E+04   8.4020E+05  0.000E+00  0.000E+00  0.000E+00  1.23227E+02  1.486E+00  5.000E+00  5.000E+03 -1.214E+01
   1    4    6     1     4    8.4020E+05 -2.6678E+04   8.6688E+05  0.000E+00  0.000E+00  0.000E+00  1.22154E+02  1.516E+00  5.000E+00  5.000E+03 -1.067E+01
   1    4    7     1     5    8.6688E+05 -1.3595E+04   8.8048E+05  0.000E+00  0.000E+00  0.000E+00  1.21348E+02  1.538E+00  5.000E+00  2.500E+03 -1.088E+01
   1    4    8     1     6    8.8048E+05 -2.2330E+04   9.0281E+05  0.000E+00  0.000E+00  0.000E+00  1.20677E+02  1.557E+00  5.000E+00  3.750E+03 -1.191E+01
   1    5    8     1     7    9.0281E+05 -1.9196E+04   9.2200E+05  0.000E+00  0.000E+00  0.000E+00  1.19733E+02  1.578E+00  5.000E+00  5.000E+03 -7.678E+00
   1    6    8     1     8    9.2200E+05 -1.2501E+04   9.3450E+05  0.000E+00  0.000E+00  0.000E+00  1.18646E+02  1.595E+00  5.000E+00  5.000E+03 -5.000E+00
   1   12    9     2     1    1.0684E+06 -1.4560E+04   1.0830E+06  0.000E+00  0.000E+00  0.000E+00  1.16344E+02  1.904E+00  5.000E+00  5.000E+03 -5.824E+00
   1   13    9     2     2    1.0830E+06 -2.1394E+04   1.1043E+06  0.000E+00  0.000E+00  0.000E+00  1.15542E+02  1.923E+00  5.000E+00  5.000E+03 -8.558E+00
   1   14   10     2     3    1.1043E+06 -1.1646E+04   1.1160E+06  0.000E+00  0.000E+00  0.000E+00  1.14920E+02  1.940E+00  5.000E+00  2.795E+03 -8.334E+00
   1   14   10     2     4    1.1160E+06 -1.2893E+04   1.1289E+06  0.000E+00  0.000E+00  0.000E+00  1.14474E+02  1.953E+00  5.000E+00  2.795E+03 -9.226E+00
   1   15   10     2     5    1.1289E+06 -2.1779E+04   1.1507E+06  0.000E+00  0.000E+00  0.000E+00  1.13852E+02  1.971E+00  5.000E+00  5.000E+03 -8.712E+00
   1   16   10     2     6    1.1507E+06 -1.5416E+04   1.1661E+06  0.000E+00  0.000E+00  0.000E+00  1.13051E+02  1.990E+00  5.000E+00  5.000E+03 -6.166E+00
   1   22   10     3     1    1.3236E+06 -1.7544E+04   1.3411E+06  0.000E+00  0.000E+00  0.000E+00  1.11030E+02  2.074E+00  5.000E+00  5.000E+03 -7.017E+00
   1   23   10     3     2    1.3411E+06 -2.4481E+04   1.3656E+06  0.000E+00  0.000E+00  0.000E+00  1.10222E+02  2.094E+00  5.000E+00  3.750E+03 -1.306E+01
   1   23   11     3     3    1.3656E+06 -1.5701E+04   1.3813E+06  0.000E+00  0.000E+00  0.000E+00  1.09649E+02  2.113E+00  5.000E+00  2.500E+03 -1.256E+01
   1   23   12     3     4    1.3813E+06 -3.3005E+04   1.4143E+06  0.000E+00  0.000E+00  0.000E+00  1.08963E+02  2.135E+00  5.000E+00  5.000E+03 -1.320E+01
   1   23   13     3     5    1.4143E+06 -3.6597E+04   1.4509E+06  0.000E+00  0.000E+00  0.000E+00  1.08048E+02  2.167E+00  5.000E+00  5.000E+03 -1.464E+01
   1   23   14     3     6    1.4509E+06 -4.1707E+04   1.4926E+06  0.000E+00  0.000E+00  0.000E+00  1.07138E+02  2.202E+00  5.000E+00  5.000E+03 -1.668E+01
   1   23   15     3     7    1.4926E+06 -5.3002E+04   1.5456E+06  0.000E+00  0.000E+00  0.000E+00  1.06234E+02  2.244E+00  5.000E+00  5.000E+03 -2.120E+01
   1   23   16     3     8    1.5456E+06 -8.7082E+04   1.6327E+06  0.000E+00  0.000E+00  0.000E+00  1.05350E+02  2.306E+00  5.000E+00  5.000E+03 -3.483E+01





     0  LAKE CELLS ARE DRY.

 PERIOD     1     TIME STEP    44     TIME STEP LENGTH  5.4303E+00
 PERIOD TIME  2.1507E+02     TOTAL SIMULATION TIME  2.1507E+02


                 HYDROLOGIC BUDGET SUMMARIES FOR SIMULATED LAKES
     (ALL FLUID FLUXES ARE VOLUMES ADDED TO THE LAKE DURING PRESENT TIME STEP)
     -------------------------------------------------------------------------
 LAKE    STAGE         VOLUME     VOL.CHANGE      PRECIP     EVAPORATION        RUNOFF
   1   116.7461     8.3413E+07    5.1768E+04    3.9369E+05    3.4957E+05    0.0000E+00
   2   111.4949     5.0592E+07    7.0688E+04    3.9369E+05    3.4957E+05    0.0000E+00

            GROUND WATER            SURFACE WATER        WATER
 LAKE    INFLOW     OUTFLOW      INFLOW     OUTFLOW       USE
   1  7.3472E+05  0.0000E+00  5.0746E+06  5.8017E+06  0.0000E+00
   2  8.8194E+05  0.0000E+00  6.3321E+06  7.1875E+06  0.0000E+00

      CONNECTED LAKE   TIME-STEP         STAGE-CHANGE          PERCENT
 LAKE    INFLUX      SURFACE AREA   TIME STEP  CUMULATIVE    DISCREPANCY
   1   0.0000E+00     6.2500E+06   8.2825E-03 -1.3254E+01       0.000
   2   0.0000E+00     6.2500E+06   1.1310E-02 -1.8505E+01       0.000
 --------------------------------------------------------------------------------



            CUMULATIVE HYDROLOGIC BUDGET SUMMARIES FOR SIMULATED LAKES
     (ALL FLUID FLUXES ARE SUMS OF VOLUMES ADDED TO THE LAKE SINCE INITIAL TIME)
     ---------------------------------------------------------------------------
 LAKE       PRECIP       EVAP       RUNOFF
   1     1.5592E+07  1.3845E+07  0.0000E+00
   2     1.5592E+07  1.3845E+07  0.0000E+00

            GROUND WATER            SURFACE WATER
 LAKE    INFLOW     OUTFLOW      INFLOW     OUTFLOW
   1  1.4966E+07  1.5644E+06  1.7193E+08  2.6991E+08
   2  2.4410E+07  1.4259E+06  2.8358E+08  4.2397E+08

         WATER    CONNECTED LAKE   CHANGE       PERCENT
 LAKE     USE         INFLUX       IN VOL.    DISCREPANCY
   1   0.0000E+00   0.0000E+00  -8.2836E+07      0.000
   2   0.0000E+00   0.0000E+00  -1.1566E+08      0.000
 --------------------------------------------------------------------------------

 
 SOLVING FOR HEAD 
     6 ITERATIONS FOR TIME STEP  45 IN STRESS PERIOD    1

 HEAD/DRAWDOWN PRINTOUT FLAG = 0     TOTAL BUDGET PRINTOUT FLAG = 0
 CELL-BY-CELL FLOW TERM FLAG = 1

 OUTPUT FLAGS FOR ALL LAYERS ARE THE SAME:
   HEAD    DRAWDOWN  HEAD  DRAWDOWN
 PRINTOUT  PRINTOUT  SAVE    SAVE
 ----------------------------------
     0         0       0       0



 STREAM LISTING     PERIOD      1   STEP       45

 LAYER ROW COL. STREAM  RCH.  FLOW INTO     FLOW TO   FLOW OUT OF   OVRLND.     DIRECT     STREAM       STREAM     STREAM     STREAM   STREAMBED  STREAMBED
                SEG.NO.  NO.  STRM. RCH.    AQUIFER    STRM. RCH.    RUNOFF     PRECIP       ET          HEAD       DEPTH      WIDTH   CONDCTNC.   GRADIENT

   1    2    5     1     1    6.9120E+05 -7.5561E+04   7.6676E+05  0.000E+00  0.000E+00  0.000E+00  1.25328E+02  1.379E+00  5.000E+00  5.000E+03 -3.022E+01
   1    3    5     1     2    7.6676E+05 -4.4015E+04   8.1078E+05  0.000E+00  0.000E+00  0.000E+00  1.24291E+02  1.446E+00  5.000E+00  5.000E+03 -1.761E+01
   1    4    5     1     3    8.1078E+05 -3.1260E+04   8.4204E+05  0.000E+00  0.000E+00  0.000E+00  1.23229E+02  1.487E+00  5.000E+00  5.000E+03 -1.250E+01
   1    4    6     1     4    8.4204E+05 -2.7295E+04   8.6933E+05  0.000E+00  0.000E+00  0.000E+00  1.22157E+02  1.519E+00  5.000E+00  5.000E+03 -1.092E+01
   1    4    7     1     5    8.6933E+05 -1.3886E+04   8.8322E+05  0.000E+00  0.000E+00  0.000E+00  1.21351E+02  1.540E+00  5.000E+00  2.500E+03 -1.111E+01
   1    4    8     1     6    8.8322E+05 -2.2822E+04   9.0604E+05  0.000E+00  0.000E+00  0.000E+00  1.20680E+02  1.560E+00  5.000E+00  3.750E+03 -1.217E+01
   1    5    8     1     7    9.0604E+05 -1.9702E+04   9.2574E+05  0.000E+00  0.000E+00  0.000E+00  1.19737E+02  1.582E+00  5.000E+00  5.000E+03 -7.881E+00
   1    6    8     1     8    9.2574E+05 -1.2811E+04   9.3855E+05  0.000E+00  0.000E+00  0.000E+00  1.18650E+02  1.599E+00  5.000E+00  5.000E+03 -5.124E+00
   1   12    9     2     1    1.0760E+06 -1.4774E+04   1.0908E+06  0.000E+00  0.000E+00  0.000E+00  1.16352E+02  1.912E+00  5.000E+00  5.000E+03 -5.910E+00
   1   13    9     2     2    1.0908E+06 -2.1742E+04   1.1126E+06  0.000E+00  0.000E+00  0.000E+00  1.15550E+02  1.931E+00  5.000E+00  5.000E+03 -8.697E+00
   1   14   10     2     3    1.1126E+06 -1.1842E+04   1.1244E+06  0.000E+00  0.000E+00  0.000E+00  1.14928E+02  1.949E+00  5.000E+00  2.795E+03 -8.474E+00
   1   14   10     2     4    1.1244E+06 -1.3088E+04   1.1375E+06  0.000E+00  0.000E+00  0.000E+00  1.14483E+02  1.962E+00  5.000E+00  2.795E+03 -9.365E+00
   1   15   10     2     5    1.1375E+06 -2.2091E+04   1.1596E+06  0.000E+00  0.000E+00  0.000E+00  1.13861E+02  1.980E+00  5.000E+00  5.000E+03 -8.836E+00
   1   16   10     2     6    1.1596E+06 -1.5609E+04   1.1752E+06  0.000E+00  0.000E+00  0.000E+00  1.13060E+02  2.000E+00  5.000E+00  5.000E+03 -6.244E+00
   1   22   10     3     1    1.3356E+06 -1.7728E+04   1.3533E+06  0.000E+00  0.000E+00  0.000E+00  1.11041E+02  2.086E+00  5.000E+00  5.000E+03 -7.091E+00
   1   23   10     3     2    1.3533E+06 -2.4869E+04   1.3782E+06  0.000E+00  0.000E+00  0.000E+00  1.10234E+02  2.105E+00  5.000E+00  3.750E+03 -1.326E+01
   1   23   11     3     3    1.3782E+06 -1.5913E+04   1.3941E+06  0.000E+00  0.000E+00  0.000E+00  1.09661E+02  2.124E+00  5.000E+00  2.500E+03 -1.273E+01
   1   23   12     3     4    1.3941E+06 -3.3398E+04   1.4275E+06  0.000E+00  0.000E+00  0.000E+00  1.08974E+02  2.147E+00  5.000E+00  5.000E+03 -1.336E+01
   1   23   13     3     5    1.4275E+06 -3.7030E+04   1.4646E+06  0.000E+00  0.000E+00  0.000E+00  1.08061E+02  2.179E+00  5.000E+00  5.000E+03 -1.481E+01
   1   23   14     3     6    1.4646E+06 -4.2168E+04   1.5067E+06  0.000E+00  0.000E+00  0.000E+00  1.07150E+02  2.214E+00  5.000E+00  5.000E+03 -1.687E+01
   1   23   15     3     7    1.5067E+06 -5.3384E+04   1.5601E+06  0.000E+00  0.000E+00  0.000E+00  1.06247E+02  2.257E+00  5.000E+00  5.000E+03 -2.135E+01
   1   23   16     3     8    1.5601E+06 -8.7236E+04   1.6473E+06  0.000E+00  0.000E+00  0.000E+00  1.05363E+02  2.318E+00  5.000E+00  5.000E+03 -3.489E+01





     0  LAKE CELLS ARE DRY.

 PERIOD     1     TIME STEP    45     TIME STEP LENGTH  5.4574E+00
 PERIOD TIME  2.2052E+02     TOTAL SIMULATION TIME  2.2052E+02


                 HYDROLOGIC BUDGET SUMMARIES FOR SIMULATED LAKES
     (ALL FLUID FLUXES ARE VOLUMES ADDED TO THE LAKE DURING PRESENT TIME STEP)
     -------------------------------------------------------------------------
 LAKE    STAGE         VOLUME     VOL.CHANGE      PRECIP     EVAPORATION        RUNOFF
   1   116.7543     8.3463E+07    5.0800E+04    3.9566E+05    3.5132E+05    0.0000E+00
   2   111.5061     5.0662E+07    7.0104E+04    3.9566E+05    3.5132E+05    0.0000E+00

            GROUND WATER            SURFACE WATER        WATER
 LAKE    INFLOW     OUTFLOW      INFLOW     OUTFLOW       USE
   1  7.5679E+05  0.0000E+00  5.1221E+06  5.8724E+06  0.0000E+00
   2  9.0127E+05  0.0000E+00  6.4135E+06  7.2890E+06  0.0000E+00

      CONNECTED LAKE   TIME-STEP         STAGE-CHANGE          PERCENT
 LAKE    INFLUX      SURFACE AREA   TIME STEP  CUMULATIVE    DISCREPANCY
   1   0.0000E+00     6.2500E+06   8.1271E-03 -1.3246E+01       0.000
   2   0.0000E+00     6.2500E+06   1.1217E-02 -1.8494E+01       0.000
 --------------------------------------------------------------------------------



            CUMULATIVE HYDROLOGIC BUDGET SUMMARIES FOR SIMULATED LAKES
     (ALL FLUID FLUXES ARE SUMS OF VOLUMES ADDED TO THE LAKE SINCE INITIAL TIME)
     ---------------------------------------------------------------------------
 LAKE       PRECIP       EVAP       RUNOFF
   1     1.5988E+07  1.4196E+07  0.0000E+00
   2     1.5988E+07  1.4196E+07  0.0000E+00

            GROUND WATER            SURFACE WATER
 LAKE    INFLOW     OUTFLOW      INFLOW     OUTFLOW
   1  1.5722E+07  1.5644E+06  1.7705E+08  2.7578E+08
   2  2.5311E+07  1.4259E+06  2.8999E+08  4.3126E+08

         WATER    CONNECTED LAKE   CHANGE       PERCENT
 LAKE     USE         INFLUX       IN VOL.    DISCREPANCY
   1   0.0000E+00   0.0000E+00  -8.2785E+07      0.000
   2   0.0000E+00   0.0000E+00  -1.1559E+08      0.000
 --------------------------------------------------------------------------------

 
 SOLVING FOR HEAD 
     6 ITERATIONS FOR TIME STEP  46 IN STRESS PERIOD    1

 HEAD/DRAWDOWN PRINTOUT FLAG = 0     TOTAL BUDGET PRINTOUT FLAG = 0
 CELL-BY-CELL FLOW TERM FLAG = 1

 OUTPUT FLAGS FOR ALL LAYERS ARE THE SAME:
   HEAD    DRAWDOWN  HEAD  DRAWDOWN
 PRINTOUT  PRINTOUT  SAVE    SAVE
 ----------------------------------
     0         0       0       0



 STREAM LISTING     PERIOD      1   STEP       46

 LAYER ROW COL. STREAM  RCH.  FLOW INTO     FLOW TO   FLOW OUT OF   OVRLND.     DIRECT     STREAM       STREAM     STREAM     STREAM   STREAMBED  STREAMBED
                SEG.NO.  NO.  STRM. RCH.    AQUIFER    STRM. RCH.    RUNOFF     PRECIP       ET          HEAD       DEPTH      WIDTH   CONDCTNC.   GRADIENT

   1    2    5     1     1    6.9120E+05 -7.5808E+04   7.6701E+05  0.000E+00  0.000E+00  0.000E+00  1.25328E+02  1.380E+00  5.000E+00  5.000E+03 -3.032E+01
   1    3    5     1     2    7.6701E+05 -4.4641E+04   8.1165E+05  0.000E+00  0.000E+00  0.000E+00  1.24292E+02  1.447E+00  5.000E+00  5.000E+03 -1.786E+01
   1    4    5     1     3    8.1165E+05 -3.2147E+04   8.4380E+05  0.000E+00  0.000E+00  0.000E+00  1.23230E+02  1.489E+00  5.000E+00  5.000E+03 -1.286E+01
   1    4    6     1     4    8.4380E+05 -2.7895E+04   8.7169E+05  0.000E+00  0.000E+00  0.000E+00  1.22159E+02  1.521E+00  5.000E+00  5.000E+03 -1.116E+01
   1    4    7     1     5    8.7169E+05 -1.4167E+04   8.8586E+05  0.000E+00  0.000E+00  0.000E+00  1.21353E+02  1.543E+00  5.000E+00  2.500E+03 -1.133E+01
   1    4    8     1     6    8.8586E+05 -2.3299E+04   9.0916E+05  0.000E+00  0.000E+00  0.000E+00  1.20683E+02  1.563E+00  5.000E+00  3.750E+03 -1.243E+01
   1    5    8     1     7    9.0916E+05 -2.0201E+04   9.2936E+05  0.000E+00  0.000E+00  0.000E+00  1.19740E+02  1.585E+00  5.000E+00  5.000E+03 -8.081E+00
   1    6    8     1     8    9.2936E+05 -1.3120E+04   9.4248E+05  0.000E+00  0.000E+00  0.000E+00  1.18654E+02  1.602E+00  5.000E+00  5.000E+03 -5.248E+00
   1   12    9     2     1    1.0836E+06 -1.4989E+04   1.0986E+06  0.000E+00  0.000E+00  0.000E+00  1.16360E+02  1.920E+00  5.000E+00  5.000E+03 -5.996E+00
   1   13    9     2     2    1.0986E+06 -2.2091E+04   1.1207E+06  0.000E+00  0.000E+00  0.000E+00  1.15559E+02  1.940E+00  5.000E+00  5.000E+03 -8.836E+00
   1   14   10     2     3    1.1207E+06 -1.2038E+04   1.1327E+06  0.000E+00  0.000E+00  0.000E+00  1.14937E+02  1.958E+00  5.000E+00  2.795E+03 -8.614E+00
   1   14   10     2     4    1.1327E+06 -1.3284E+04   1.1460E+06  0.000E+00  0.000E+00  0.000E+00  1.14491E+02  1.971E+00  5.000E+00  2.795E+03 -9.505E+00
   1   15   10     2     5    1.1460E+06 -2.2404E+04   1.1684E+06  0.000E+00  0.000E+00  0.000E+00  1.13870E+02  1.989E+00  5.000E+00  5.000E+03 -8.962E+00
   1   16   10     2     6    1.1684E+06 -1.5804E+04   1.1842E+06  0.000E+00  0.000E+00  0.000E+00  1.13069E+02  2.009E+00  5.000E+00  5.000E+03 -6.321E+00
   1   22   10     3     1    1.3475E+06 -1.7916E+04   1.3655E+06  0.000E+00  0.000E+00  0.000E+00  1.11053E+02  2.097E+00  5.000E+00  5.000E+03 -7.166E+00
   1   23   10     3     2    1.3655E+06 -2.5258E+04   1.3907E+06  0.000E+00  0.000E+00  0.000E+00  1.10245E+02  2.117E+00  5.000E+00  3.750E+03 -1.347E+01
   1   23   11     3     3    1.3907E+06 -1.6124E+04   1.4068E+06  0.000E+00  0.000E+00  0.000E+00  1.09673E+02  2.136E+00  5.000E+00  2.500E+03 -1.290E+01
   1   23   12     3     4    1.4068E+06 -3.3790E+04   1.4406E+06  0.000E+00  0.000E+00  0.000E+00  1.08986E+02  2.159E+00  5.000E+00  5.000E+03 -1.352E+01
   1   23   13     3     5    1.4406E+06 -3.7458E+04   1.4781E+06  0.000E+00  0.000E+00  0.000E+00  1.08073E+02  2.191E+00  5.000E+00  5.000E+03 -1.498E+01
   1   23   14     3     6    1.4781E+06 -4.2620E+04   1.5207E+06  0.000E+00  0.000E+00  0.000E+00  1.07163E+02  2.227E+00  5.000E+00  5.000E+03 -1.705E+01
   1   23   15     3     7    1.5207E+06 -5.3751E+04   1.5745E+06  0.000E+00  0.000E+00  0.000E+00  1.06260E+02  2.269E+00  5.000E+00  5.000E+03 -2.150E+01
   1   23   16     3     8    1.5745E+06 -8.7382E+04   1.6618E+06  0.000E+00  0.000E+00  0.000E+00  1.05375E+02  2.331E+00  5.000E+00  5.000E+03 -3.495E+01





     0  LAKE CELLS ARE DRY.

 PERIOD     1     TIME STEP    46     TIME STEP LENGTH  5.4847E+00
 PERIOD TIME  2.2601E+02     TOTAL SIMULATION TIME  2.2601E+02


                 HYDROLOGIC BUDGET SUMMARIES FOR SIMULATED LAKES
     (ALL FLUID FLUXES ARE VOLUMES ADDED TO THE LAKE DURING PRESENT TIME STEP)
     -------------------------------------------------------------------------
 LAKE    STAGE         VOLUME     VOL.CHANGE      PRECIP     EVAPORATION        RUNOFF
   1   116.7622     8.3513E+07    4.9768E+04    3.9764E+05    3.5308E+05    0.0000E+00
   2   111.5172     5.0732E+07    6.9664E+04    3.9764E+05    3.5308E+05    0.0000E+00

            GROUND WATER            SURFACE WATER        WATER
 LAKE    INFLOW     OUTFLOW      INFLOW     OUTFLOW       USE
   1  7.7918E+05  0.0000E+00  5.1692E+06  5.9432E+06  0.0000E+00
   2  9.2098E+05  0.0000E+00  6.4950E+06  7.3909E+06  0.0000E+00

      CONNECTED LAKE   TIME-STEP         STAGE-CHANGE          PERCENT
 LAKE    INFLUX      SURFACE AREA   TIME STEP  CUMULATIVE    DISCREPANCY
   1   0.0000E+00     6.2500E+06   7.9626E-03 -1.3238E+01       0.000
   2   0.0000E+00     6.2500E+06   1.1147E-02 -1.8483E+01       0.000
 --------------------------------------------------------------------------------



            CUMULATIVE HYDROLOGIC BUDGET SUMMARIES FOR SIMULATED LAKES
     (ALL FLUID FLUXES ARE SUMS OF VOLUMES ADDED TO THE LAKE SINCE INITIAL TIME)
     ---------------------------------------------------------------------------
 LAKE       PRECIP       EVAP       RUNOFF
   1     1.6386E+07  1.4549E+07  0.0000E+00
   2     1.6386E+07  1.4549E+07  0.0000E+00

            GROUND WATER            SURFACE WATER
 LAKE    INFLOW     OUTFLOW      INFLOW     OUTFLOW
   1  1.6502E+07  1.5644E+06  1.8222E+08  2.8173E+08
   2  2.6232E+07  1.4259E+06  2.9649E+08  4.3865E+08

         WATER    CONNECTED LAKE   CHANGE       PERCENT
 LAKE     USE         INFLUX       IN VOL.    DISCREPANCY
   1   0.0000E+00   0.0000E+00  -8.2735E+07      0.000
   2   0.0000E+00   0.0000E+00  -1.1552E+08      0.000
 --------------------------------------------------------------------------------

 
 SOLVING FOR HEAD 
     6 ITERATIONS FOR TIME STEP  47 IN STRESS PERIOD    1

 HEAD/DRAWDOWN PRINTOUT FLAG = 0     TOTAL BUDGET PRINTOUT FLAG = 0
 CELL-BY-CELL FLOW TERM FLAG = 1

 OUTPUT FLAGS FOR ALL LAYERS ARE THE SAME:
   HEAD    DRAWDOWN  HEAD  DRAWDOWN
 PRINTOUT  PRINTOUT  SAVE    SAVE
 ----------------------------------
     0         0       0       0



 STREAM LISTING     PERIOD      1   STEP       47

 LAYER ROW COL. STREAM  RCH.  FLOW INTO     FLOW TO   FLOW OUT OF   OVRLND.     DIRECT     STREAM       STREAM     STREAM     STREAM   STREAMBED  STREAMBED
                SEG.NO.  NO.  STRM. RCH.    AQUIFER    STRM. RCH.    RUNOFF     PRECIP       ET          HEAD       DEPTH      WIDTH   CONDCTNC.   GRADIENT

   1    2    5     1     1    6.9120E+05 -7.6041E+04   7.6724E+05  0.000E+00  0.000E+00  0.000E+00  1.25328E+02  1.380E+00  5.000E+00  5.000E+03 -3.042E+01
   1    3    5     1     2    7.6724E+05 -4.5237E+04   8.1248E+05  0.000E+00  0.000E+00  0.000E+00  1.24292E+02  1.447E+00  5.000E+00  5.000E+03 -1.809E+01
   1    4    5     1     3    8.1248E+05 -3.3010E+04   8.4549E+05  0.000E+00  0.000E+00  0.000E+00  1.23231E+02  1.490E+00  5.000E+00  5.000E+03 -1.320E+01
   1    4    6     1     4    8.4549E+05 -2.8477E+04   8.7396E+05  0.000E+00  0.000E+00  0.000E+00  1.22161E+02  1.523E+00  5.000E+00  5.000E+03 -1.139E+01
   1    4    7     1     5    8.7396E+05 -1.4438E+04   8.8840E+05  0.000E+00  0.000E+00  0.000E+00  1.21356E+02  1.546E+00  5.000E+00  2.500E+03 -1.155E+01
   1    4    8     1     6    8.8840E+05 -2.3761E+04   9.1216E+05  0.000E+00  0.000E+00  0.000E+00  1.20686E+02  1.566E+00  5.000E+00  3.750E+03 -1.267E+01
   1    5    8     1     7    9.1216E+05 -2.0695E+04   9.3286E+05  0.000E+00  0.000E+00  0.000E+00  1.19744E+02  1.589E+00  5.000E+00  5.000E+03 -8.278E+00
   1    6    8     1     8    9.3286E+05 -1.3428E+04   9.4629E+05  0.000E+00  0.000E+00  0.000E+00  1.18658E+02  1.606E+00  5.000E+00  5.000E+03 -5.371E+00
   1   12    9     2     1    1.0910E+06 -1.5204E+04   1.1062E+06  0.000E+00  0.000E+00  0.000E+00  1.16368E+02  1.928E+00  5.000E+00  5.000E+03 -6.082E+00
   1   13    9     2     2    1.1062E+06 -2.2441E+04   1.1287E+06  0.000E+00  0.000E+00  0.000E+00  1.15567E+02  1.948E+00  5.000E+00  5.000E+03 -8.976E+00
   1   14   10     2     3    1.1287E+06 -1.2235E+04   1.1409E+06  0.000E+00  0.000E+00  0.000E+00  1.14945E+02  1.966E+00  5.000E+00  2.795E+03 -8.755E+00
   1   14   10     2     4    1.1409E+06 -1.3479E+04   1.1544E+06  0.000E+00  0.000E+00  0.000E+00  1.14500E+02  1.979E+00  5.000E+00  2.795E+03 -9.645E+00
   1   15   10     2     5    1.1544E+06 -2.2719E+04   1.1771E+06  0.000E+00  0.000E+00  0.000E+00  1.13879E+02  1.998E+00  5.000E+00  5.000E+03 -9.088E+00
   1   16   10     2     6    1.1771E+06 -1.6000E+04   1.1931E+06  0.000E+00  0.000E+00  0.000E+00  1.13078E+02  2.018E+00  5.000E+00  5.000E+03 -6.400E+00
   1   22   10     3     1    1.3594E+06 -1.8106E+04   1.3775E+06  0.000E+00  0.000E+00  0.000E+00  1.11064E+02  2.108E+00  5.000E+00  5.000E+03 -7.243E+00
   1   23   10     3     2    1.3775E+06 -2.5645E+04   1.4031E+06  0.000E+00  0.000E+00  0.000E+00  1.10256E+02  2.128E+00  5.000E+00  3.750E+03 -1.368E+01
   1   23   11     3     3    1.4031E+06 -1.6334E+04   1.4195E+06  0.000E+00  0.000E+00  0.000E+00  1.09684E+02  2.147E+00  5.000E+00  2.500E+03 -1.307E+01
   1   23   12     3     4    1.4195E+06 -3.4177E+04   1.4537E+06  0.000E+00  0.000E+00  0.000E+00  1.08998E+02  2.170E+00  5.000E+00  5.000E+03 -1.367E+01
   1   23   13     3     5    1.4537E+06 -3.7881E+04   1.4915E+06  0.000E+00  0.000E+00  0.000E+00  1.08085E+02  2.203E+00  5.000E+00  5.000E+03 -1.515E+01
   1   23   14     3     6    1.4915E+06 -4.3061E+04   1.5346E+06  0.000E+00  0.000E+00  0.000E+00  1.07175E+02  2.239E+00  5.000E+00  5.000E+03 -1.722E+01
   1   23   15     3     7    1.5346E+06 -5.4104E+04   1.5887E+06  0.000E+00  0.000E+00  0.000E+00  1.06272E+02  2.282E+00  5.000E+00  5.000E+03 -2.164E+01
   1   23   16     3     8    1.5887E+06 -8.7521E+04   1.6762E+06  0.000E+00  0.000E+00  0.000E+00  1.05388E+02  2.343E+00  5.000E+00  5.000E+03 -3.501E+01





     0  LAKE CELLS ARE DRY.

 PERIOD     1     TIME STEP    47     TIME STEP LENGTH  5.5121E+00
 PERIOD TIME  2.3152E+02     TOTAL SIMULATION TIME  2.3152E+02


                 HYDROLOGIC BUDGET SUMMARIES FOR SIMULATED LAKES
     (ALL FLUID FLUXES ARE VOLUMES ADDED TO THE LAKE DURING PRESENT TIME STEP)
     -------------------------------------------------------------------------
 LAKE    STAGE         VOLUME     VOL.CHANGE      PRECIP     EVAPORATION        RUNOFF
   1   116.7701     8.3562E+07    4.8888E+04    3.9963E+05    3.5484E+05    0.0000E+00
   2   111.5283     5.0801E+07    6.9176E+04    3.9963E+05    3.5484E+05    0.0000E+00

            GROUND WATER            SURFACE WATER        WATER
 LAKE    INFLOW     OUTFLOW      INFLOW     OUTFLOW       USE
   1  8.0186E+05  0.0000E+00  5.2160E+06  6.0138E+06  0.0000E+00
   2  9.4109E+05  0.0000E+00  6.5765E+06  7.4932E+06  0.0000E+00

      CONNECTED LAKE   TIME-STEP         STAGE-CHANGE          PERCENT
 LAKE    INFLUX      SURFACE AREA   TIME STEP  CUMULATIVE    DISCREPANCY
   1   0.0000E+00     6.2500E+06   7.8222E-03 -1.3230E+01       0.000
   2   0.0000E+00     6.2500E+06   1.1069E-02 -1.8472E+01       0.000
 --------------------------------------------------------------------------------



            CUMULATIVE HYDROLOGIC BUDGET SUMMARIES FOR SIMULATED LAKES
     (ALL FLUID FLUXES ARE SUMS OF VOLUMES ADDED TO THE LAKE SINCE INITIAL TIME)
     ---------------------------------------------------------------------------
 LAKE       PRECIP       EVAP       RUNOFF
   1     1.6785E+07  1.4904E+07  0.0000E+00
   2     1.6785E+07  1.4904E+07  0.0000E+00

            GROUND WATER            SURFACE WATER
 LAKE    INFLOW     OUTFLOW      INFLOW     OUTFLOW
   1  1.7303E+07  1.5644E+06  1.8743E+08  2.8774E+08
   2  2.7173E+07  1.4259E+06  3.0307E+08  4.4614E+08

         WATER    CONNECTED LAKE   CHANGE       PERCENT
 LAKE     USE         INFLUX       IN VOL.    DISCREPANCY
   1   0.0000E+00   0.0000E+00  -8.2686E+07      0.000
   2   0.0000E+00   0.0000E+00  -1.1545E+08      0.000
 --------------------------------------------------------------------------------

 
 SOLVING FOR HEAD 
     6 ITERATIONS FOR TIME STEP  48 IN STRESS PERIOD    1

 HEAD/DRAWDOWN PRINTOUT FLAG = 0     TOTAL BUDGET PRINTOUT FLAG = 0
 CELL-BY-CELL FLOW TERM FLAG = 1

 OUTPUT FLAGS FOR ALL LAYERS ARE THE SAME:
   HEAD    DRAWDOWN  HEAD  DRAWDOWN
 PRINTOUT  PRINTOUT  SAVE    SAVE
 ----------------------------------
     0         0       0       0



 STREAM LISTING     PERIOD      1   STEP       48

 LAYER ROW COL. STREAM  RCH.  FLOW INTO     FLOW TO   FLOW OUT OF   OVRLND.     DIRECT     STREAM       STREAM     STREAM     STREAM   STREAMBED  STREAMBED
                SEG.NO.  NO.  STRM. RCH.    AQUIFER    STRM. RCH.    RUNOFF     PRECIP       ET          HEAD       DEPTH      WIDTH   CONDCTNC.   GRADIENT

   1    2    5     1     1    6.9120E+05 -7.6260E+04   7.6746E+05  0.000E+00  0.000E+00  0.000E+00  1.25328E+02  1.380E+00  5.000E+00  5.000E+03 -3.050E+01
   1    3    5     1     2    7.6746E+05 -4.5803E+04   8.1326E+05  0.000E+00  0.000E+00  0.000E+00  1.24293E+02  1.448E+00  5.000E+00  5.000E+03 -1.832E+01
   1    4    5     1     3    8.1326E+05 -3.3849E+04   8.4711E+05  0.000E+00  0.000E+00  0.000E+00  1.23233E+02  1.491E+00  5.000E+00  5.000E+03 -1.354E+01
   1    4    6     1     4    8.4711E+05 -2.9042E+04   8.7615E+05  0.000E+00  0.000E+00  0.000E+00  1.22163E+02  1.525E+00  5.000E+00  5.000E+03 -1.162E+01
   1    4    7     1     5    8.7615E+05 -1.4701E+04   8.9086E+05  0.000E+00  0.000E+00  0.000E+00  1.21358E+02  1.548E+00  5.000E+00  2.500E+03 -1.176E+01
   1    4    8     1     6    8.9086E+05 -2.4207E+04   9.1506E+05  0.000E+00  0.000E+00  0.000E+00  1.20689E+02  1.568E+00  5.000E+00  3.750E+03 -1.291E+01
   1    5    8     1     7    9.1506E+05 -2.1182E+04   9.3624E+05  0.000E+00  0.000E+00  0.000E+00  1.19747E+02  1.592E+00  5.000E+00  5.000E+03 -8.473E+00
   1    6    8     1     8    9.3624E+05 -1.3735E+04   9.4998E+05  0.000E+00  0.000E+00  0.000E+00  1.18662E+02  1.610E+00  5.000E+00  5.000E+03 -5.494E+00
   1   12    9     2     1    1.0983E+06 -1.5420E+04   1.1137E+06  0.000E+00  0.000E+00  0.000E+00  1.16376E+02  1.936E+00  5.000E+00  5.000E+03 -6.168E+00
   1   13    9     2     2    1.1137E+06 -2.2792E+04   1.1365E+06  0.000E+00  0.000E+00  0.000E+00  1.15575E+02  1.956E+00  5.000E+00  5.000E+03 -9.117E+00
   1   14   10     2     3    1.1365E+06 -1.2431E+04   1.1490E+06  0.000E+00  0.000E+00  0.000E+00  1.14954E+02  1.974E+00  5.000E+00  2.795E+03 -8.895E+00
   1   14   10     2     4    1.1490E+06 -1.3676E+04   1.1626E+06  0.000E+00  0.000E+00  0.000E+00  1.14508E+02  1.988E+00  5.000E+00  2.795E+03 -9.786E+00
   1   15   10     2     5    1.1626E+06 -2.3035E+04   1.1857E+06  0.000E+00  0.000E+00  0.000E+00  1.13888E+02  2.007E+00  5.000E+00  5.000E+03 -9.214E+00
   1   16   10     2     6    1.1857E+06 -1.6197E+04   1.2019E+06  0.000E+00  0.000E+00  0.000E+00  1.13087E+02  2.027E+00  5.000E+00  5.000E+03 -6.479E+00
   1   22   10     3     1    1.3713E+06 -1.8299E+04   1.3896E+06  0.000E+00  0.000E+00  0.000E+00  1.11075E+02  2.119E+00  5.000E+00  5.000E+03 -7.320E+00
   1   23   10     3     2    1.3896E+06 -2.6032E+04   1.4156E+06  0.000E+00  0.000E+00  0.000E+00  1.10267E+02  2.139E+00  5.000E+00  3.750E+03 -1.388E+01
   1   23   11     3     3    1.4156E+06 -1.6542E+04   1.4321E+06  0.000E+00  0.000E+00  0.000E+00  1.09696E+02  2.159E+00  5.000E+00  2.500E+03 -1.323E+01
   1   23   12     3     4    1.4321E+06 -3.4561E+04   1.4667E+06  0.000E+00  0.000E+00  0.000E+00  1.09009E+02  2.182E+00  5.000E+00  5.000E+03 -1.382E+01
   1   23   13     3     5    1.4667E+06 -3.8298E+04   1.5050E+06  0.000E+00  0.000E+00  0.000E+00  1.08096E+02  2.215E+00  5.000E+00  5.000E+03 -1.532E+01
   1   23   14     3     6    1.5050E+06 -4.3492E+04   1.5485E+06  0.000E+00  0.000E+00  0.000E+00  1.07187E+02  2.251E+00  5.000E+00  5.000E+03 -1.740E+01
   1   23   15     3     7    1.5485E+06 -5.4441E+04   1.6029E+06  0.000E+00  0.000E+00  0.000E+00  1.06284E+02  2.294E+00  5.000E+00  5.000E+03 -2.178E+01
   1   23   16     3     8    1.6029E+06 -8.7651E+04   1.6906E+06  0.000E+00  0.000E+00  0.000E+00  1.05400E+02  2.356E+00  5.000E+00  5.000E+03 -3.506E+01





     0  LAKE CELLS ARE DRY.

 PERIOD     1     TIME STEP    48     TIME STEP LENGTH  5.5397E+00
 PERIOD TIME  2.3706E+02     TOTAL SIMULATION TIME  2.3706E+02


                 HYDROLOGIC BUDGET SUMMARIES FOR SIMULATED LAKES
     (ALL FLUID FLUXES ARE VOLUMES ADDED TO THE LAKE DURING PRESENT TIME STEP)
     -------------------------------------------------------------------------
 LAKE    STAGE         VOLUME     VOL.CHANGE      PRECIP     EVAPORATION        RUNOFF
   1   116.7777     8.3610E+07    4.8104E+04    4.0163E+05    3.5662E+05    0.0000E+00
   2   111.5392     5.0869E+07    6.8188E+04    4.0163E+05    3.5662E+05    0.0000E+00

            GROUND WATER            SURFACE WATER        WATER
 LAKE    INFLOW     OUTFLOW      INFLOW     OUTFLOW       USE
   1  8.2482E+05  0.0000E+00  5.2626E+06  6.0843E+06  0.0000E+00
   2  9.6155E+05  0.0000E+00  6.6579E+06  7.5963E+06  0.0000E+00

      CONNECTED LAKE   TIME-STEP         STAGE-CHANGE          PERCENT
 LAKE    INFLUX      SURFACE AREA   TIME STEP  CUMULATIVE    DISCREPANCY
   1   0.0000E+00     6.2500E+06   7.6961E-03 -1.3222E+01       0.000
   2   0.0000E+00     6.2500E+06   1.0910E-02 -1.8461E+01       0.000
 --------------------------------------------------------------------------------



            CUMULATIVE HYDROLOGIC BUDGET SUMMARIES FOR SIMULATED LAKES
     (ALL FLUID FLUXES ARE SUMS OF VOLUMES ADDED TO THE LAKE SINCE INITIAL TIME)
     ---------------------------------------------------------------------------
 LAKE       PRECIP       EVAP       RUNOFF
   1     1.7187E+07  1.5261E+07  0.0000E+00
   2     1.7187E+07  1.5261E+07  0.0000E+00

            GROUND WATER            SURFACE WATER
 LAKE    INFLOW     OUTFLOW      INFLOW     OUTFLOW
   1  1.8128E+07  1.5644E+06  1.9270E+08  2.9382E+08
   2  2.8135E+07  1.4259E+06  3.0972E+08  4.5374E+08

         WATER    CONNECTED LAKE   CHANGE       PERCENT
 LAKE     USE         INFLUX       IN VOL.    DISCREPANCY
   1   0.0000E+00   0.0000E+00  -8.2638E+07      0.000
   2   0.0000E+00   0.0000E+00  -1.1538E+08      0.000
 --------------------------------------------------------------------------------

 
 SOLVING FOR HEAD 
     6 ITERATIONS FOR TIME STEP  49 IN STRESS PERIOD    1

 HEAD/DRAWDOWN PRINTOUT FLAG = 0     TOTAL BUDGET PRINTOUT FLAG = 0
 CELL-BY-CELL FLOW TERM FLAG = 1

 OUTPUT FLAGS FOR ALL LAYERS ARE THE SAME:
   HEAD    DRAWDOWN  HEAD  DRAWDOWN
 PRINTOUT  PRINTOUT  SAVE    SAVE
 ----------------------------------
     0         0       0       0



 STREAM LISTING     PERIOD      1   STEP       49

 LAYER ROW COL. STREAM  RCH.  FLOW INTO     FLOW TO   FLOW OUT OF   OVRLND.     DIRECT     STREAM       STREAM     STREAM     STREAM   STREAMBED  STREAMBED
                SEG.NO.  NO.  STRM. RCH.    AQUIFER    STRM. RCH.    RUNOFF     PRECIP       ET          HEAD       DEPTH      WIDTH   CONDCTNC.   GRADIENT

   1    2    5     1     1    6.9120E+05 -7.6468E+04   7.6767E+05  0.000E+00  0.000E+00  0.000E+00  1.25328E+02  1.380E+00  5.000E+00  5.000E+03 -3.059E+01
   1    3    5     1     2    7.6767E+05 -4.6342E+04   8.1401E+05  0.000E+00  0.000E+00  0.000E+00  1.24293E+02  1.448E+00  5.000E+00  5.000E+03 -1.854E+01
   1    4    5     1     3    8.1401E+05 -3.4664E+04   8.4867E+05  0.000E+00  0.000E+00  0.000E+00  1.23234E+02  1.493E+00  5.000E+00  5.000E+03 -1.387E+01
   1    4    6     1     4    8.4867E+05 -2.9590E+04   8.7826E+05  0.000E+00  0.000E+00  0.000E+00  1.22165E+02  1.527E+00  5.000E+00  5.000E+03 -1.184E+01
   1    4    7     1     5    8.7826E+05 -1.4954E+04   8.9322E+05  0.000E+00  0.000E+00  0.000E+00  1.21361E+02  1.550E+00  5.000E+00  2.500E+03 -1.196E+01
   1    4    8     1     6    8.9322E+05 -2.4638E+04   9.1786E+05  0.000E+00  0.000E+00  0.000E+00  1.20692E+02  1.571E+00  5.000E+00  3.750E+03 -1.314E+01
   1    5    8     1     7    9.1786E+05 -2.1662E+04   9.3952E+05  0.000E+00  0.000E+00  0.000E+00  1.19750E+02  1.595E+00  5.000E+00  5.000E+03 -8.665E+00
   1    6    8     1     8    9.3952E+05 -1.4041E+04   9.5356E+05  0.000E+00  0.000E+00  0.000E+00  1.18665E+02  1.613E+00  5.000E+00  5.000E+03 -5.616E+00
   1   12    9     2     1    1.1055E+06 -1.5636E+04   1.1211E+06  0.000E+00  0.000E+00  0.000E+00  1.16383E+02  1.944E+00  5.000E+00  5.000E+03 -6.254E+00
   1   13    9     2     2    1.1211E+06 -2.3143E+04   1.1443E+06  0.000E+00  0.000E+00  0.000E+00  1.15583E+02  1.964E+00  5.000E+00  5.000E+03 -9.257E+00
   1   14   10     2     3    1.1443E+06 -1.2628E+04   1.1569E+06  0.000E+00  0.000E+00  0.000E+00  1.14962E+02  1.982E+00  5.000E+00  2.795E+03 -9.036E+00
   1   14   10     2     4    1.1569E+06 -1.3872E+04   1.1708E+06  0.000E+00  0.000E+00  0.000E+00  1.14517E+02  1.996E+00  5.000E+00  2.795E+03 -9.926E+00
   1   15   10     2     5    1.1708E+06 -2.3352E+04   1.1941E+06  0.000E+00  0.000E+00  0.000E+00  1.13896E+02  2.015E+00  5.000E+00  5.000E+03 -9.341E+00
   1   16   10     2     6    1.1941E+06 -1.6395E+04   1.2105E+06  0.000E+00  0.000E+00  0.000E+00  1.13096E+02  2.035E+00  5.000E+00  5.000E+03 -6.558E+00
   1   22   10     3     1    1.3830E+06 -1.8494E+04   1.4015E+06  0.000E+00  0.000E+00  0.000E+00  1.11086E+02  2.130E+00  5.000E+00  5.000E+03 -7.398E+00
   1   23   10     3     2    1.4015E+06 -2.6417E+04   1.4279E+06  0.000E+00  0.000E+00  0.000E+00  1.10278E+02  2.150E+00  5.000E+00  3.750E+03 -1.409E+01
   1   23   11     3     3    1.4279E+06 -1.6749E+04   1.4447E+06  0.000E+00  0.000E+00  0.000E+00  1.09707E+02  2.170E+00  5.000E+00  2.500E+03 -1.340E+01
   1   23   12     3     4    1.4447E+06 -3.4941E+04   1.4796E+06  0.000E+00  0.000E+00  0.000E+00  1.09021E+02  2.193E+00  5.000E+00  5.000E+03 -1.398E+01
   1   23   13     3     5    1.4796E+06 -3.8709E+04   1.5183E+06  0.000E+00  0.000E+00  0.000E+00  1.08108E+02  2.226E+00  5.000E+00  5.000E+03 -1.548E+01
   1   23   14     3     6    1.5183E+06 -4.3913E+04   1.5622E+06  0.000E+00  0.000E+00  0.000E+00  1.07199E+02  2.263E+00  5.000E+00  5.000E+03 -1.757E+01
   1   23   15     3     7    1.5622E+06 -5.4766E+04   1.6170E+06  0.000E+00  0.000E+00  0.000E+00  1.06296E+02  2.306E+00  5.000E+00  5.000E+03 -2.191E+01
   1   23   16     3     8    1.6170E+06 -8.7775E+04   1.7048E+06  0.000E+00  0.000E+00  0.000E+00  1.05412E+02  2.368E+00  5.000E+00  5.000E+03 -3.511E+01





     0  LAKE CELLS ARE DRY.

 PERIOD     1     TIME STEP    49     TIME STEP LENGTH  5.5674E+00
 PERIOD TIME  2.4263E+02     TOTAL SIMULATION TIME  2.4263E+02


                 HYDROLOGIC BUDGET SUMMARIES FOR SIMULATED LAKES
     (ALL FLUID FLUXES ARE VOLUMES ADDED TO THE LAKE DURING PRESENT TIME STEP)
     -------------------------------------------------------------------------
 LAKE    STAGE         VOLUME     VOL.CHANGE      PRECIP     EVAPORATION        RUNOFF
   1   116.7853     8.3657E+07    4.7376E+04    4.0364E+05    3.5840E+05    0.0000E+00
   2   111.5500     5.0937E+07    6.7468E+04    4.0364E+05    3.5840E+05    0.0000E+00

            GROUND WATER            SURFACE WATER        WATER
 LAKE    INFLOW     OUTFLOW      INFLOW     OUTFLOW       USE
   1  8.4808E+05  0.0000E+00  5.3088E+06  6.1548E+06  0.0000E+00
   2  9.8243E+05  0.0000E+00  6.7395E+06  7.6997E+06  0.0000E+00

      CONNECTED LAKE   TIME-STEP         STAGE-CHANGE          PERCENT
 LAKE    INFLUX      SURFACE AREA   TIME STEP  CUMULATIVE    DISCREPANCY
   1   0.0000E+00     6.2500E+06   7.5802E-03 -1.3215E+01       0.000
   2   0.0000E+00     6.2500E+06   1.0795E-02 -1.8450E+01       0.000
 --------------------------------------------------------------------------------



            CUMULATIVE HYDROLOGIC BUDGET SUMMARIES FOR SIMULATED LAKES
     (ALL FLUID FLUXES ARE SUMS OF VOLUMES ADDED TO THE LAKE SINCE INITIAL TIME)
     ---------------------------------------------------------------------------
 LAKE       PRECIP       EVAP       RUNOFF
   1     1.7591E+07  1.5619E+07  0.0000E+00
   2     1.7591E+07  1.5619E+07  0.0000E+00

            GROUND WATER            SURFACE WATER
 LAKE    INFLOW     OUTFLOW      INFLOW     OUTFLOW
   1  1.8976E+07  1.5644E+06  1.9800E+08  2.9998E+08
   2  2.9117E+07  1.4259E+06  3.1646E+08  4.6144E+08

         WATER    CONNECTED LAKE   CHANGE       PERCENT
 LAKE     USE         INFLUX       IN VOL.    DISCREPANCY
   1   0.0000E+00   0.0000E+00  -8.2591E+07      0.000
   2   0.0000E+00   0.0000E+00  -1.1531E+08      0.000
 --------------------------------------------------------------------------------

 
 SOLVING FOR HEAD 
     6 ITERATIONS FOR TIME STEP  50 IN STRESS PERIOD    1

 HEAD/DRAWDOWN PRINTOUT FLAG = 1     TOTAL BUDGET PRINTOUT FLAG = 1
 CELL-BY-CELL FLOW TERM FLAG = 1

 OUTPUT FLAGS FOR EACH LAYER:
          HEAD    DRAWDOWN  HEAD  DRAWDOWN
 LAYER  PRINTOUT  PRINTOUT  SAVE    SAVE
 -----------------------------------------
    1       0         0       0       0
    2       0         0       0       0
    3       0         0       0       0
    4       0         0       0       0
    5       1         0       0       0



 STREAM LISTING     PERIOD      1   STEP       50

 LAYER ROW COL. STREAM  RCH.  FLOW INTO     FLOW TO   FLOW OUT OF   OVRLND.     DIRECT     STREAM       STREAM     STREAM     STREAM   STREAMBED  STREAMBED
                SEG.NO.  NO.  STRM. RCH.    AQUIFER    STRM. RCH.    RUNOFF     PRECIP       ET          HEAD       DEPTH      WIDTH   CONDCTNC.   GRADIENT

   1    2    5     1     1    6.9120E+05 -7.6664E+04   7.6786E+05  0.000E+00  0.000E+00  0.000E+00  1.25328E+02  1.380E+00  5.000E+00  5.000E+03 -3.067E+01
   1    3    5     1     2    7.6786E+05 -4.6856E+04   8.1472E+05  0.000E+00  0.000E+00  0.000E+00  1.24294E+02  1.449E+00  5.000E+00  5.000E+03 -1.874E+01
   1    4    5     1     3    8.1472E+05 -3.5454E+04   8.5017E+05  0.000E+00  0.000E+00  0.000E+00  1.23235E+02  1.494E+00  5.000E+00  5.000E+03 -1.418E+01
   1    4    6     1     4    8.5017E+05 -3.0123E+04   8.8030E+05  0.000E+00  0.000E+00  0.000E+00  1.22167E+02  1.529E+00  5.000E+00  5.000E+03 -1.205E+01
   1    4    7     1     5    8.8030E+05 -1.5200E+04   8.9550E+05  0.000E+00  0.000E+00  0.000E+00  1.21363E+02  1.553E+00  5.000E+00  2.500E+03 -1.216E+01
   1    4    8     1     6    8.9550E+05 -2.5056E+04   9.2055E+05  0.000E+00  0.000E+00  0.000E+00  1.20694E+02  1.574E+00  5.000E+00  3.750E+03 -1.336E+01
   1    5    8     1     7    9.2055E+05 -2.2136E+04   9.4269E+05  0.000E+00  0.000E+00  0.000E+00  1.19753E+02  1.598E+00  5.000E+00  5.000E+03 -8.854E+00
   1    6    8     1     8    9.4269E+05 -1.4345E+04   9.5703E+05  0.000E+00  0.000E+00  0.000E+00  1.18669E+02  1.617E+00  5.000E+00  5.000E+03 -5.738E+00
   1   12    9     2     1    1.1126E+06 -1.5852E+04   1.1284E+06  0.000E+00  0.000E+00  0.000E+00  1.16391E+02  1.951E+00  5.000E+00  5.000E+03 -6.341E+00
   1   13    9     2     2    1.1284E+06 -2.3496E+04   1.1519E+06  0.000E+00  0.000E+00  0.000E+00  1.15591E+02  1.972E+00  5.000E+00  5.000E+03 -9.398E+00
   1   14   10     2     3    1.1519E+06 -1.2826E+04   1.1648E+06  0.000E+00  0.000E+00  0.000E+00  1.14970E+02  1.990E+00  5.000E+00  2.795E+03 -9.178E+00
   1   14   10     2     4    1.1648E+06 -1.4069E+04   1.1788E+06  0.000E+00  0.000E+00  0.000E+00  1.14525E+02  2.004E+00  5.000E+00  2.795E+03 -1.007E+01
   1   15   10     2     5    1.1788E+06 -2.3670E+04   1.2025E+06  0.000E+00  0.000E+00  0.000E+00  1.13904E+02  2.023E+00  5.000E+00  5.000E+03 -9.468E+00
   1   16   10     2     6    1.2025E+06 -1.6594E+04   1.2191E+06  0.000E+00  0.000E+00  0.000E+00  1.13104E+02  2.044E+00  5.000E+00  5.000E+03 -6.637E+00
   1   22   10     3     1    1.3946E+06 -1.8691E+04   1.4133E+06  0.000E+00  0.000E+00  0.000E+00  1.11096E+02  2.141E+00  5.000E+00  5.000E+03 -7.476E+00
   1   23   10     3     2    1.4133E+06 -2.6801E+04   1.4401E+06  0.000E+00  0.000E+00  0.000E+00  1.10289E+02  2.161E+00  5.000E+00  3.750E+03 -1.429E+01
   1   23   11     3     3    1.4401E+06 -1.6955E+04   1.4571E+06  0.000E+00  0.000E+00  0.000E+00  1.09718E+02  2.181E+00  5.000E+00  2.500E+03 -1.356E+01
   1   23   12     3     4    1.4571E+06 -3.5317E+04   1.4924E+06  0.000E+00  0.000E+00  0.000E+00  1.09032E+02  2.205E+00  5.000E+00  5.000E+03 -1.413E+01
   1   23   13     3     5    1.4924E+06 -3.9113E+04   1.5315E+06  0.000E+00  0.000E+00  0.000E+00  1.08120E+02  2.238E+00  5.000E+00  5.000E+03 -1.565E+01
   1   23   14     3     6    1.5315E+06 -4.4323E+04   1.5758E+06  0.000E+00  0.000E+00  0.000E+00  1.07211E+02  2.275E+00  5.000E+00  5.000E+03 -1.773E+01
   1   23   15     3     7    1.5758E+06 -5.5076E+04   1.6309E+06  0.000E+00  0.000E+00  0.000E+00  1.06308E+02  2.318E+00  5.000E+00  5.000E+03 -2.203E+01
   1   23   16     3     8    1.6309E+06 -8.7893E+04   1.7188E+06  0.000E+00  0.000E+00  0.000E+00  1.05424E+02  2.380E+00  5.000E+00  5.000E+03 -3.516E+01





     0  LAKE CELLS ARE DRY.

 PERIOD     1     TIME STEP    50     TIME STEP LENGTH  5.5952E+00
 PERIOD TIME  2.4822E+02     TOTAL SIMULATION TIME  2.4822E+02


                 HYDROLOGIC BUDGET SUMMARIES FOR SIMULATED LAKES
     (ALL FLUID FLUXES ARE VOLUMES ADDED TO THE LAKE DURING PRESENT TIME STEP)
     -------------------------------------------------------------------------
 LAKE    STAGE         VOLUME     VOL.CHANGE      PRECIP     EVAPORATION        RUNOFF
   1   116.7928     8.3704E+07    4.6680E+04    4.0565E+05    3.6019E+05    0.0000E+00
   2   111.5607     5.1004E+07    6.6892E+04    4.0565E+05    3.6019E+05    0.0000E+00

            GROUND WATER            SURFACE WATER        WATER
 LAKE    INFLOW     OUTFLOW      INFLOW     OUTFLOW       USE
   1  8.7160E+05  0.0000E+00  5.3548E+06  6.2252E+06  0.0000E+00
   2  1.0036E+06  0.0000E+00  6.8211E+06  7.8033E+06  0.0000E+00

      CONNECTED LAKE   TIME-STEP         STAGE-CHANGE          PERCENT
 LAKE    INFLUX      SURFACE AREA   TIME STEP  CUMULATIVE    DISCREPANCY
   1   0.0000E+00     6.2500E+06   7.4689E-03 -1.3207E+01       0.000
   2   0.0000E+00     6.2500E+06   1.0703E-02 -1.8439E+01       0.000
 --------------------------------------------------------------------------------



            CUMULATIVE HYDROLOGIC BUDGET SUMMARIES FOR SIMULATED LAKES
     (ALL FLUID FLUXES ARE SUMS OF VOLUMES ADDED TO THE LAKE SINCE INITIAL TIME)
     ---------------------------------------------------------------------------
 LAKE       PRECIP       EVAP       RUNOFF
   1     1.7996E+07  1.5979E+07  0.0000E+00
   2     1.7996E+07  1.5979E+07  0.0000E+00

            GROUND WATER            SURFACE WATER
 LAKE    INFLOW     OUTFLOW      INFLOW     OUTFLOW
   1  1.9848E+07  1.5644E+06  2.0336E+08  3.0620E+08
   2  3.0121E+07  1.4259E+06  3.2328E+08  4.6924E+08

         WATER    CONNECTED LAKE   CHANGE       PERCENT
 LAKE     USE         INFLUX       IN VOL.    DISCREPANCY
   1   0.0000E+00   0.0000E+00  -8.2544E+07      0.000
   2   0.0000E+00   0.0000E+00  -1.1524E+08      0.000
 --------------------------------------------------------------------------------

1
              HEAD IN LAYER   5 AT END OF TIME STEP  50 IN STRESS PERIOD    1
  ---------------------------------------------------------------------------

          1      2      3      4      5      6      7      8      9     10
 .........................................................................
   1   160.0  158.9  157.3  155.8  154.2  152.7  151.5  150.8  150.0  149.2
   2   160.0  157.7  154.3  149.9  140.7  145.7  146.0  145.8  145.5  145.0
   3   160.0  156.3  150.8  144.3  133.7  137.6  138.2  138.4  138.7  138.8
   4   160.0  155.4  148.5  141.0  130.3  128.2  127.5  127.4  130.9  132.7
   5   160.0  154.9  147.2  139.8  133.1  129.2  126.5  124.2  126.8  128.5
   6   160.0  154.6  146.5  139.0  132.8  128.0  123.9  121.5  122.9  124.0
   7   160.0  154.5  146.3  138.6  132.2  126.0  117.3  117.0  117.0  117.0
   8   160.0  154.5  146.2  138.4  131.9  125.4  117.1  116.8  116.8  116.8
   9   160.0  154.5  146.1  138.3  131.7  125.2  117.1  116.8  116.8  116.8
  10   160.0  154.5  146.1  138.2  131.7  125.3  117.1  116.8  116.8  116.8
  11   160.0  154.4  146.1  138.2  131.9  125.8  117.3  117.0  116.9  116.9
  12   160.0  154.4  146.1  138.3  132.3  127.5  123.7  121.8  119.6  121.5
  13   160.0  154.4  146.1  138.4  132.6  128.7  125.8  123.5  120.3  122.6
  14   160.0  154.4  146.1  138.4  132.7  128.9  126.4  124.6  122.3  119.6
  15   160.0  154.4  146.0  138.3  132.3  128.2  125.5  123.6  121.5  118.7
  16   160.0  154.4  146.0  138.0  131.5  126.1  121.7  119.8  118.2  116.4
  17   160.0  154.4  145.9  137.8  130.8  123.3  112.2  111.8  111.8  111.7
  18   160.0  154.4  145.9  137.8  130.5  122.4  111.9  111.6  111.6  111.6
  19   160.0  154.4  146.0  137.8  130.5  122.2  111.9  111.6  111.6  111.6
  20   160.0  154.5  146.0  137.9  130.7  122.6  111.9  111.6  111.6  111.6
  21   160.0  154.5  146.2  138.2  131.3  123.6  112.3  111.8  111.8  111.7
  22   160.0  154.6  146.5  139.0  132.6  127.0  122.3  120.1  117.8  114.9
  23   160.0  155.0  147.5  140.8  135.4  131.3  128.3  126.1  122.9  117.5
  24   160.0  155.6  149.2  143.7  139.4  136.4  134.5  133.2  131.8  130.5
  25   160.0  156.5  151.7  147.6  144.5  142.2  140.8  140.0  139.1  138.3
  26   160.0  157.8  154.9  152.4  150.3  148.5  147.2  146.5  145.7  144.9
  27   160.0  158.9  157.3  155.8  154.2  152.7  151.5  150.8  150.0  149.2
1
              HEAD IN LAYER   5 AT END OF TIME STEP  50 IN STRESS PERIOD    1
  ---------------------------------------------------------------------------

         11     12     13     14     15     16     17
 ....................................................
   1   148.5  147.3  145.8  144.2  142.7  141.1  140.0
   2   144.5  143.6  142.4  141.4  140.5  140.0  140.0
   3   138.7  138.5  137.9  137.7  138.0  138.9  140.0
   4   133.6  134.2  134.5  135.0  136.2  138.2  140.0
   5   129.6  130.9  132.1  133.3  135.1  137.8  140.0
   6   125.2  128.0  130.5  132.4  134.6  137.6  140.0
   7   117.3  125.4  129.6  132.0  134.4  137.5  140.0
   8   117.0  124.7  129.2  131.9  134.4  137.5  140.0
   9   117.0  124.4  129.1  131.8  134.3  137.5  140.0
  10   117.0  124.5  129.1  131.8  134.3  137.5  140.0
  11   117.2  124.9  129.2  131.8  134.3  137.5  140.0
  12   123.2  126.5  129.5  131.9  134.3  137.5  140.0
  13   124.6  127.2  129.8  131.9  134.3  137.5  140.0
  14   123.2  126.8  129.6  131.8  134.3  137.5  140.0
  15   122.1  126.0  129.2  131.7  134.2  137.4  140.0
  16   119.5  124.3  128.5  131.4  134.1  137.4  140.0
  17   112.1  121.9  127.6  131.0  133.9  137.3  140.0
  18   111.9  121.1  127.1  130.7  133.6  137.2  140.0
  19   111.8  120.6  126.6  130.2  133.2  137.0  140.0
  20   111.8  120.3  125.9  129.4  132.5  136.6  140.0
  21   112.0  120.1  125.0  128.2  131.4  135.8  140.0
  22   116.9  120.1  122.9  125.2  128.4  133.6  140.0
  23   116.5  116.1  116.0  116.1  117.4  123.0  140.0
  24   129.6  128.8  128.4  128.8  130.3  134.3  140.0
  25   137.6  136.7  135.9  135.5  136.0  137.8  140.0
  26   144.2  143.2  141.9  140.8  140.0  139.8  140.0
  27   148.5  147.3  145.8  144.2  142.7  141.1  140.0
1
  VOLUMETRIC BUDGET FOR ENTIRE MODEL AT END OF TIME STEP 50 IN STRESS PERIOD   1
  ------------------------------------------------------------------------------

     CUMULATIVE VOLUMES      L**3       RATES FOR THIS TIME STEP      L**3/T
     ------------------                 ------------------------

           IN:                                      IN:
           ---                                      ---
             STORAGE =     2934567.7500               STORAGE =           0.0000
       CONSTANT HEAD =   571237248.0000         CONSTANT HEAD =      994336.4375
                  ET =           0.0000                    ET =           0.0000
            RECHARGE =   683855872.0000              RECHARGE =     2755000.0000
     SPECIFIED FLOWS =           0.0000       SPECIFIED FLOWS =           0.0000
      STREAM LEAKAGE =     3694574.2500        STREAM LEAKAGE =           0.0000
       LAKE  SEEPAGE =     2990331.7500         LAKE  SEEPAGE =           0.0000

            TOTAL IN =  1264712576.0000              TOTAL IN =     3749336.5000

          OUT:                                     OUT:
          ----                                     ----
             STORAGE =   994044032.0000               STORAGE =     1795785.1250
       CONSTANT HEAD =         478.3739         CONSTANT HEAD =          85.4969
                  ET =   103565456.0000                    ET =      921818.3125
            RECHARGE =           0.0000              RECHARGE =           0.0000
     SPECIFIED FLOWS =           0.0000       SPECIFIED FLOWS =           0.0000
      STREAM LEAKAGE =   117131088.0000        STREAM LEAKAGE =      696507.8750
       LAKE  SEEPAGE =    49969060.0000         LAKE  SEEPAGE =      335150.6250

           TOTAL OUT =  1264710144.0000             TOTAL OUT =     3749347.5000

            IN - OUT =        2432.0000              IN - OUT =         -11.0000

 PERCENT DISCREPANCY =           0.00     PERCENT DISCREPANCY =           0.00






          TIME SUMMARY AT END OF TIME STEP  50 IN STRESS PERIOD    1
                    SECONDS     MINUTES      HOURS       DAYS        YEARS
                    -----------------------------------------------------------
   TIME STEP LENGTH 4.83427E+05  8057.1      134.29      5.5952     1.53189E-02
 STRESS PERIOD TIME 2.14465E+07 3.57442E+05  5957.4      248.22     0.67960    
         TOTAL TIME 2.14465E+07 3.57442E+05  5957.4      248.22     0.67960    
1
 
 SOLVING FOR HEAD 
     6 ITERATIONS FOR TIME STEP  51 IN STRESS PERIOD    1

 HEAD/DRAWDOWN PRINTOUT FLAG = 0     TOTAL BUDGET PRINTOUT FLAG = 0
 CELL-BY-CELL FLOW TERM FLAG = 1

 OUTPUT FLAGS FOR ALL LAYERS ARE THE SAME:
   HEAD    DRAWDOWN  HEAD  DRAWDOWN
 PRINTOUT  PRINTOUT  SAVE    SAVE
 ----------------------------------
     0         0       0       0



 STREAM LISTING     PERIOD      1   STEP       51

 LAYER ROW COL. STREAM  RCH.  FLOW INTO     FLOW TO   FLOW OUT OF   OVRLND.     DIRECT     STREAM       STREAM     STREAM     STREAM   STREAMBED  STREAMBED
                SEG.NO.  NO.  STRM. RCH.    AQUIFER    STRM. RCH.    RUNOFF     PRECIP       ET          HEAD       DEPTH      WIDTH   CONDCTNC.   GRADIENT

   1    2    5     1     1    6.9120E+05 -7.6849E+04   7.6805E+05  0.000E+00  0.000E+00  0.000E+00  1.25328E+02  1.380E+00  5.000E+00  5.000E+03 -3.074E+01
   1    3    5     1     2    7.6805E+05 -4.7343E+04   8.1539E+05  0.000E+00  0.000E+00  0.000E+00  1.24294E+02  1.449E+00  5.000E+00  5.000E+03 -1.894E+01
   1    4    5     1     3    8.1539E+05 -3.6218E+04   8.5161E+05  0.000E+00  0.000E+00  0.000E+00  1.23236E+02  1.495E+00  5.000E+00  5.000E+03 -1.449E+01
   1    4    6     1     4    8.5161E+05 -3.0639E+04   8.8225E+05  0.000E+00  0.000E+00  0.000E+00  1.22168E+02  1.531E+00  5.000E+00  5.000E+03 -1.226E+01
   1    4    7     1     5    8.8225E+05 -1.5437E+04   8.9769E+05  0.000E+00  0.000E+00  0.000E+00  1.21365E+02  1.555E+00  5.000E+00  2.500E+03 -1.235E+01
   1    4    8     1     6    8.9769E+05 -2.5459E+04   9.2315E+05  0.000E+00  0.000E+00  0.000E+00  1.20697E+02  1.576E+00  5.000E+00  3.750E+03 -1.358E+01
   1    5    8     1     7    9.2315E+05 -2.2603E+04   9.4575E+05  0.000E+00  0.000E+00  0.000E+00  1.19756E+02  1.601E+00  5.000E+00  5.000E+03 -9.041E+00
   1    6    8     1     8    9.4575E+05 -1.4648E+04   9.6040E+05  0.000E+00  0.000E+00  0.000E+00  1.18672E+02  1.620E+00  5.000E+00  5.000E+03 -5.859E+00
   1   12    9     2     1    1.1196E+06 -1.6070E+04   1.1356E+06  0.000E+00  0.000E+00  0.000E+00  1.16398E+02  1.958E+00  5.000E+00  5.000E+03 -6.428E+00
   1   13    9     2     2    1.1356E+06 -2.3849E+04   1.1595E+06  0.000E+00  0.000E+00  0.000E+00  1.15598E+02  1.979E+00  5.000E+00  5.000E+03 -9.540E+00
   1   14   10     2     3    1.1595E+06 -1.3023E+04   1.1725E+06  0.000E+00  0.000E+00  0.000E+00  1.14978E+02  1.998E+00  5.000E+00  2.795E+03 -9.319E+00
   1   14   10     2     4    1.1725E+06 -1.4266E+04   1.1868E+06  0.000E+00  0.000E+00  0.000E+00  1.14533E+02  2.012E+00  5.000E+00  2.795E+03 -1.021E+01
   1   15   10     2     5    1.1868E+06 -2.3989E+04   1.2108E+06  0.000E+00  0.000E+00  0.000E+00  1.13913E+02  2.032E+00  5.000E+00  5.000E+03 -9.596E+00
   1   16   10     2     6    1.2108E+06 -1.6794E+04   1.2276E+06  0.000E+00  0.000E+00  0.000E+00  1.13113E+02  2.052E+00  5.000E+00  5.000E+03 -6.718E+00
   1   22   10     3     1    1.4062E+06 -1.8890E+04   1.4250E+06  0.000E+00  0.000E+00  0.000E+00  1.11107E+02  2.151E+00  5.000E+00  5.000E+03 -7.556E+00
   1   23   10     3     2    1.4250E+06 -2.7183E+04   1.4522E+06  0.000E+00  0.000E+00  0.000E+00  1.10300E+02  2.172E+00  5.000E+00  3.750E+03 -1.450E+01
   1   23   11     3     3    1.4522E+06 -1.7158E+04   1.4694E+06  0.000E+00  0.000E+00  0.000E+00  1.09729E+02  2.192E+00  5.000E+00  2.500E+03 -1.373E+01
   1   23   12     3     4    1.4694E+06 -3.5687E+04   1.5051E+06  0.000E+00  0.000E+00  0.000E+00  1.09043E+02  2.216E+00  5.000E+00  5.000E+03 -1.427E+01
   1   23   13     3     5    1.5051E+06 -3.9511E+04   1.5446E+06  0.000E+00  0.000E+00  0.000E+00  1.08131E+02  2.249E+00  5.000E+00  5.000E+03 -1.580E+01
   1   23   14     3     6    1.5446E+06 -4.4723E+04   1.5893E+06  0.000E+00  0.000E+00  0.000E+00  1.07222E+02  2.286E+00  5.000E+00  5.000E+03 -1.789E+01
   1   23   15     3     7    1.5893E+06 -5.5374E+04   1.6447E+06  0.000E+00  0.000E+00  0.000E+00  1.06320E+02  2.330E+00  5.000E+00  5.000E+03 -2.215E+01
   1   23   16     3     8    1.6447E+06 -8.8005E+04   1.7327E+06  0.000E+00  0.000E+00  0.000E+00  1.05436E+02  2.391E+00  5.000E+00  5.000E+03 -3.520E+01





     0  LAKE CELLS ARE DRY.

 PERIOD     1     TIME STEP    51     TIME STEP LENGTH  5.6232E+00
 PERIOD TIME  2.5385E+02     TOTAL SIMULATION TIME  2.5385E+02


                 HYDROLOGIC BUDGET SUMMARIES FOR SIMULATED LAKES
     (ALL FLUID FLUXES ARE VOLUMES ADDED TO THE LAKE DURING PRESENT TIME STEP)
     -------------------------------------------------------------------------
 LAKE    STAGE         VOLUME     VOL.CHANGE      PRECIP     EVAPORATION        RUNOFF
   1   116.8002     8.3750E+07    4.5992E+04    4.0768E+05    3.6199E+05    0.0000E+00
   2   111.5714     5.1070E+07    6.6652E+04    4.0768E+05    3.6199E+05    0.0000E+00

            GROUND WATER            SURFACE WATER        WATER
 LAKE    INFLOW     OUTFLOW      INFLOW     OUTFLOW       USE
   1  8.9537E+05  0.0000E+00  5.4005E+06  6.2956E+06  0.0000E+00
   2  1.0252E+06  0.0000E+00  6.9028E+06  7.9071E+06  0.0000E+00

      CONNECTED LAKE   TIME-STEP         STAGE-CHANGE          PERCENT
 LAKE    INFLUX      SURFACE AREA   TIME STEP  CUMULATIVE    DISCREPANCY
   1   0.0000E+00     6.2500E+06   7.3581E-03 -1.3200E+01       0.000
   2   0.0000E+00     6.2500E+06   1.0665E-02 -1.8429E+01       0.000
 --------------------------------------------------------------------------------



            CUMULATIVE HYDROLOGIC BUDGET SUMMARIES FOR SIMULATED LAKES
     (ALL FLUID FLUXES ARE SUMS OF VOLUMES ADDED TO THE LAKE SINCE INITIAL TIME)
     ---------------------------------------------------------------------------
 LAKE       PRECIP       EVAP       RUNOFF
   1     1.8404E+07  1.6341E+07  0.0000E+00
   2     1.8404E+07  1.6341E+07  0.0000E+00

            GROUND WATER            SURFACE WATER
 LAKE    INFLOW     OUTFLOW      INFLOW     OUTFLOW
   1  2.0743E+07  1.5644E+06  2.0876E+08  3.1250E+08
   2  3.1146E+07  1.4259E+06  3.3019E+08  4.7715E+08

         WATER    CONNECTED LAKE   CHANGE       PERCENT
 LAKE     USE         INFLUX       IN VOL.    DISCREPANCY
   1   0.0000E+00   0.0000E+00  -8.2498E+07      0.000
   2   0.0000E+00   0.0000E+00  -1.1518E+08      0.000
 --------------------------------------------------------------------------------

 
 SOLVING FOR HEAD 
     6 ITERATIONS FOR TIME STEP  52 IN STRESS PERIOD    1

 HEAD/DRAWDOWN PRINTOUT FLAG = 0     TOTAL BUDGET PRINTOUT FLAG = 0
 CELL-BY-CELL FLOW TERM FLAG = 1

 OUTPUT FLAGS FOR ALL LAYERS ARE THE SAME:
   HEAD    DRAWDOWN  HEAD  DRAWDOWN
 PRINTOUT  PRINTOUT  SAVE    SAVE
 ----------------------------------
     0         0       0       0



 STREAM LISTING     PERIOD      1   STEP       52

 LAYER ROW COL. STREAM  RCH.  FLOW INTO     FLOW TO   FLOW OUT OF   OVRLND.     DIRECT     STREAM       STREAM     STREAM     STREAM   STREAMBED  STREAMBED
                SEG.NO.  NO.  STRM. RCH.    AQUIFER    STRM. RCH.    RUNOFF     PRECIP       ET          HEAD       DEPTH      WIDTH   CONDCTNC.   GRADIENT

   1    2    5     1     1    6.9120E+05 -7.7024E+04   7.6822E+05  0.000E+00  0.000E+00  0.000E+00  1.25328E+02  1.380E+00  5.000E+00  5.000E+03 -3.081E+01
   1    3    5     1     2    7.6822E+05 -4.7807E+04   8.1603E+05  0.000E+00  0.000E+00  0.000E+00  1.24295E+02  1.450E+00  5.000E+00  5.000E+03 -1.912E+01
   1    4    5     1     3    8.1603E+05 -3.6958E+04   8.5299E+05  0.000E+00  0.000E+00  0.000E+00  1.23237E+02  1.496E+00  5.000E+00  5.000E+03 -1.478E+01
   1    4    6     1     4    8.5299E+05 -3.1140E+04   8.8413E+05  0.000E+00  0.000E+00  0.000E+00  1.22170E+02  1.532E+00  5.000E+00  5.000E+03 -1.246E+01
   1    4    7     1     5    8.8413E+05 -1.5666E+04   8.9979E+05  0.000E+00  0.000E+00  0.000E+00  1.21367E+02  1.557E+00  5.000E+00  2.500E+03 -1.253E+01
   1    4    8     1     6    8.9979E+05 -2.5848E+04   9.2564E+05  0.000E+00  0.000E+00  0.000E+00  1.20699E+02  1.579E+00  5.000E+00  3.750E+03 -1.379E+01
   1    5    8     1     7    9.2564E+05 -2.3064E+04   9.4871E+05  0.000E+00  0.000E+00  0.000E+00  1.19759E+02  1.604E+00  5.000E+00  5.000E+03 -9.225E+00
   1    6    8     1     8    9.4871E+05 -1.4949E+04   9.6366E+05  0.000E+00  0.000E+00  0.000E+00  1.18675E+02  1.623E+00  5.000E+00  5.000E+03 -5.980E+00
   1   12    9     2     1    1.1265E+06 -1.6287E+04   1.1428E+06  0.000E+00  0.000E+00  0.000E+00  1.16406E+02  1.966E+00  5.000E+00  5.000E+03 -6.515E+00
   1   13    9     2     2    1.1428E+06 -2.4203E+04   1.1670E+06  0.000E+00  0.000E+00  0.000E+00  1.15606E+02  1.987E+00  5.000E+00  5.000E+03 -9.681E+00
   1   14   10     2     3    1.1670E+06 -1.3221E+04   1.1802E+06  0.000E+00  0.000E+00  0.000E+00  1.14985E+02  2.006E+00  5.000E+00  2.795E+03 -9.460E+00
   1   14   10     2     4    1.1802E+06 -1.4463E+04   1.1947E+06  0.000E+00  0.000E+00  0.000E+00  1.14541E+02  2.020E+00  5.000E+00  2.795E+03 -1.035E+01
   1   15   10     2     5    1.1947E+06 -2.4308E+04   1.2190E+06  0.000E+00  0.000E+00  0.000E+00  1.13921E+02  2.040E+00  5.000E+00  5.000E+03 -9.723E+00
   1   16   10     2     6    1.2190E+06 -1.6994E+04   1.2360E+06  0.000E+00  0.000E+00  0.000E+00  1.13121E+02  2.061E+00  5.000E+00  5.000E+03 -6.798E+00
   1   22   10     3     1    1.4178E+06 -1.9091E+04   1.4368E+06  0.000E+00  0.000E+00  0.000E+00  1.11118E+02  2.162E+00  5.000E+00  5.000E+03 -7.636E+00
   1   23   10     3     2    1.4368E+06 -2.7561E+04   1.4644E+06  0.000E+00  0.000E+00  0.000E+00  1.10311E+02  2.183E+00  5.000E+00  3.750E+03 -1.470E+01
   1   23   11     3     3    1.4644E+06 -1.7359E+04   1.4818E+06  0.000E+00  0.000E+00  0.000E+00  1.09740E+02  2.203E+00  5.000E+00  2.500E+03 -1.389E+01
   1   23   12     3     4    1.4818E+06 -3.6052E+04   1.5178E+06  0.000E+00  0.000E+00  0.000E+00  1.09055E+02  2.227E+00  5.000E+00  5.000E+03 -1.442E+01
   1   23   13     3     5    1.5178E+06 -3.9901E+04   1.5577E+06  0.000E+00  0.000E+00  0.000E+00  1.08143E+02  2.261E+00  5.000E+00  5.000E+03 -1.596E+01
   1   23   14     3     6    1.5577E+06 -4.5111E+04   1.6028E+06  0.000E+00  0.000E+00  0.000E+00  1.07234E+02  2.298E+00  5.000E+00  5.000E+03 -1.804E+01
   1   23   15     3     7    1.6028E+06 -5.5659E+04   1.6585E+06  0.000E+00  0.000E+00  0.000E+00  1.06332E+02  2.342E+00  5.000E+00  5.000E+03 -2.226E+01
   1   23   16     3     8    1.6585E+06 -8.8110E+04   1.7466E+06  0.000E+00  0.000E+00  0.000E+00  1.05447E+02  2.403E+00  5.000E+00  5.000E+03 -3.524E+01





     0  LAKE CELLS ARE DRY.

 PERIOD     1     TIME STEP    52     TIME STEP LENGTH  5.6513E+00
 PERIOD TIME  2.5950E+02     TOTAL SIMULATION TIME  2.5950E+02


                 HYDROLOGIC BUDGET SUMMARIES FOR SIMULATED LAKES
     (ALL FLUID FLUXES ARE VOLUMES ADDED TO THE LAKE DURING PRESENT TIME STEP)
     -------------------------------------------------------------------------
 LAKE    STAGE         VOLUME     VOL.CHANGE      PRECIP     EVAPORATION        RUNOFF
   1   116.8073     8.3795E+07    4.4952E+04    4.0972E+05    3.6380E+05    0.0000E+00
   2   111.5819     5.1136E+07    6.5832E+04    4.0972E+05    3.6380E+05    0.0000E+00

            GROUND WATER            SURFACE WATER        WATER
 LAKE    INFLOW     OUTFLOW      INFLOW     OUTFLOW       USE
   1  9.1940E+05  0.0000E+00  5.4459E+06  6.3663E+06  0.0000E+00
   2  1.0471E+06  0.0000E+00  6.9850E+06  8.0122E+06  0.0000E+00

      CONNECTED LAKE   TIME-STEP         STAGE-CHANGE          PERCENT
 LAKE    INFLUX      SURFACE AREA   TIME STEP  CUMULATIVE    DISCREPANCY
   1   0.0000E+00     6.2500E+06   7.1929E-03 -1.3193E+01       0.000
   2   0.0000E+00     6.2500E+06   1.0533E-02 -1.8418E+01       0.000
 --------------------------------------------------------------------------------



            CUMULATIVE HYDROLOGIC BUDGET SUMMARIES FOR SIMULATED LAKES
     (ALL FLUID FLUXES ARE SUMS OF VOLUMES ADDED TO THE LAKE SINCE INITIAL TIME)
     ---------------------------------------------------------------------------
 LAKE       PRECIP       EVAP       RUNOFF
   1     1.8814E+07  1.6705E+07  0.0000E+00
   2     1.8814E+07  1.6705E+07  0.0000E+00

            GROUND WATER            SURFACE WATER
 LAKE    INFLOW     OUTFLOW      INFLOW     OUTFLOW
   1  2.1663E+07  1.5644E+06  2.1421E+08  3.1887E+08
   2  3.2193E+07  1.4259E+06  3.3717E+08  4.8516E+08

         WATER    CONNECTED LAKE   CHANGE       PERCENT
 LAKE     USE         INFLUX       IN VOL.    DISCREPANCY
   1   0.0000E+00   0.0000E+00  -8.2453E+07      0.000
   2   0.0000E+00   0.0000E+00  -1.1511E+08      0.000
 --------------------------------------------------------------------------------

 
 SOLVING FOR HEAD 
     6 ITERATIONS FOR TIME STEP  53 IN STRESS PERIOD    1

 HEAD/DRAWDOWN PRINTOUT FLAG = 0     TOTAL BUDGET PRINTOUT FLAG = 0
 CELL-BY-CELL FLOW TERM FLAG = 1

 OUTPUT FLAGS FOR ALL LAYERS ARE THE SAME:
   HEAD    DRAWDOWN  HEAD  DRAWDOWN
 PRINTOUT  PRINTOUT  SAVE    SAVE
 ----------------------------------
     0         0       0       0



 STREAM LISTING     PERIOD      1   STEP       53

 LAYER ROW COL. STREAM  RCH.  FLOW INTO     FLOW TO   FLOW OUT OF   OVRLND.     DIRECT     STREAM       STREAM     STREAM     STREAM   STREAMBED  STREAMBED
                SEG.NO.  NO.  STRM. RCH.    AQUIFER    STRM. RCH.    RUNOFF     PRECIP       ET          HEAD       DEPTH      WIDTH   CONDCTNC.   GRADIENT

   1    2    5     1     1    6.9120E+05 -7.7189E+04   7.6839E+05  0.000E+00  0.000E+00  0.000E+00  1.25329E+02  1.380E+00  5.000E+00  5.000E+03 -3.088E+01
   1    3    5     1     2    7.6839E+05 -4.8247E+04   8.1664E+05  0.000E+00  0.000E+00  0.000E+00  1.24295E+02  1.450E+00  5.000E+00  5.000E+03 -1.930E+01
   1    4    5     1     3    8.1664E+05 -3.7671E+04   8.5431E+05  0.000E+00  0.000E+00  0.000E+00  1.23238E+02  1.497E+00  5.000E+00  5.000E+03 -1.507E+01
   1    4    6     1     4    8.5431E+05 -3.1624E+04   8.8593E+05  0.000E+00  0.000E+00  0.000E+00  1.22172E+02  1.534E+00  5.000E+00  5.000E+03 -1.265E+01
   1    4    7     1     5    8.8593E+05 -1.5887E+04   9.0182E+05  0.000E+00  0.000E+00  0.000E+00  1.21369E+02  1.559E+00  5.000E+00  2.500E+03 -1.271E+01
   1    4    8     1     6    9.0182E+05 -2.6225E+04   9.2804E+05  0.000E+00  0.000E+00  0.000E+00  1.20702E+02  1.581E+00  5.000E+00  3.750E+03 -1.399E+01
   1    5    8     1     7    9.2804E+05 -2.3517E+04   9.5156E+05  0.000E+00  0.000E+00  0.000E+00  1.19762E+02  1.606E+00  5.000E+00  5.000E+03 -9.407E+00
   1    6    8     1     8    9.5156E+05 -1.5249E+04   9.6681E+05  0.000E+00  0.000E+00  0.000E+00  1.18678E+02  1.626E+00  5.000E+00  5.000E+03 -6.099E+00
   1   12    9     2     1    1.1333E+06 -1.6505E+04   1.1498E+06  0.000E+00  0.000E+00  0.000E+00  1.16413E+02  1.973E+00  5.000E+00  5.000E+03 -6.602E+00
   1   13    9     2     2    1.1498E+06 -2.4559E+04   1.1744E+06  0.000E+00  0.000E+00  0.000E+00  1.15613E+02  1.994E+00  5.000E+00  5.000E+03 -9.823E+00
   1   14   10     2     3    1.1744E+06 -1.3419E+04   1.1878E+06  0.000E+00  0.000E+00  0.000E+00  1.14993E+02  2.014E+00  5.000E+00  2.795E+03 -9.602E+00
   1   14   10     2     4    1.1878E+06 -1.4661E+04   1.2025E+06  0.000E+00  0.000E+00  0.000E+00  1.14549E+02  2.028E+00  5.000E+00  2.795E+03 -1.049E+01
   1   15   10     2     5    1.2025E+06 -2.4629E+04   1.2271E+06  0.000E+00  0.000E+00  0.000E+00  1.13929E+02  2.048E+00  5.000E+00  5.000E+03 -9.851E+00
   1   16   10     2     6    1.2271E+06 -1.7195E+04   1.2443E+06  0.000E+00  0.000E+00  0.000E+00  1.13129E+02  2.069E+00  5.000E+00  5.000E+03 -6.878E+00
   1   22   10     3     1    1.4292E+06 -1.9292E+04   1.4485E+06  0.000E+00  0.000E+00  0.000E+00  1.11128E+02  2.172E+00  5.000E+00  5.000E+03 -7.717E+00
   1   23   10     3     2    1.4485E+06 -2.7937E+04   1.4765E+06  0.000E+00  0.000E+00  0.000E+00  1.10322E+02  2.194E+00  5.000E+00  3.750E+03 -1.490E+01
   1   23   11     3     3    1.4765E+06 -1.7558E+04   1.4940E+06  0.000E+00  0.000E+00  0.000E+00  1.09751E+02  2.214E+00  5.000E+00  2.500E+03 -1.405E+01
   1   23   12     3     4    1.4940E+06 -3.6412E+04   1.5304E+06  0.000E+00  0.000E+00  0.000E+00  1.09066E+02  2.238E+00  5.000E+00  5.000E+03 -1.456E+01
   1   23   13     3     5    1.5304E+06 -4.0283E+04   1.5707E+06  0.000E+00  0.000E+00  0.000E+00  1.08154E+02  2.272E+00  5.000E+00  5.000E+03 -1.611E+01
   1   23   14     3     6    1.5707E+06 -4.5488E+04   1.6162E+06  0.000E+00  0.000E+00  0.000E+00  1.07245E+02  2.310E+00  5.000E+00  5.000E+03 -1.820E+01
   1   23   15     3     7    1.6162E+06 -5.5933E+04   1.6721E+06  0.000E+00  0.000E+00  0.000E+00  1.06343E+02  2.353E+00  5.000E+00  5.000E+03 -2.237E+01
   1   23   16     3     8    1.6721E+06 -8.8209E+04   1.7604E+06  0.000E+00  0.000E+00  0.000E+00  1.05459E+02  2.415E+00  5.000E+00  5.000E+03 -3.528E+01





     0  LAKE CELLS ARE DRY.

 PERIOD     1     TIME STEP    53     TIME STEP LENGTH  5.6796E+00
 PERIOD TIME  2.6518E+02     TOTAL SIMULATION TIME  2.6518E+02


                 HYDROLOGIC BUDGET SUMMARIES FOR SIMULATED LAKES
     (ALL FLUID FLUXES ARE VOLUMES ADDED TO THE LAKE DURING PRESENT TIME STEP)
     -------------------------------------------------------------------------
 LAKE    STAGE         VOLUME     VOL.CHANGE      PRECIP     EVAPORATION        RUNOFF
   1   116.8144     8.3839E+07    4.4104E+04    4.1177E+05    3.6562E+05    0.0000E+00
   2   111.5923     5.1201E+07    6.5024E+04    4.1177E+05    3.6562E+05    0.0000E+00

            GROUND WATER            SURFACE WATER        WATER
 LAKE    INFLOW     OUTFLOW      INFLOW     OUTFLOW       USE
   1  9.4367E+05  0.0000E+00  5.4911E+06  6.4368E+06  0.0000E+00
   2  1.0694E+06  0.0000E+00  7.0670E+06  8.1175E+06  0.0000E+00

      CONNECTED LAKE   TIME-STEP         STAGE-CHANGE          PERCENT
 LAKE    INFLUX      SURFACE AREA   TIME STEP  CUMULATIVE    DISCREPANCY
   1   0.0000E+00     6.2500E+06   7.0557E-03 -1.3186E+01       0.000
   2   0.0000E+00     6.2500E+06   1.0404E-02 -1.8408E+01       0.000
 --------------------------------------------------------------------------------



            CUMULATIVE HYDROLOGIC BUDGET SUMMARIES FOR SIMULATED LAKES
     (ALL FLUID FLUXES ARE SUMS OF VOLUMES ADDED TO THE LAKE SINCE INITIAL TIME)
     ---------------------------------------------------------------------------
 LAKE       PRECIP       EVAP       RUNOFF
   1     1.9225E+07  1.7071E+07  0.0000E+00
   2     1.9225E+07  1.7071E+07  0.0000E+00

            GROUND WATER            SURFACE WATER
 LAKE    INFLOW     OUTFLOW      INFLOW     OUTFLOW
   1  2.2606E+07  1.5644E+06  2.1970E+08  3.2530E+08
   2  3.3263E+07  1.4259E+06  3.4424E+08  4.9328E+08

         WATER    CONNECTED LAKE   CHANGE       PERCENT
 LAKE     USE         INFLUX       IN VOL.    DISCREPANCY
   1   0.0000E+00   0.0000E+00  -8.2409E+07      0.000
   2   0.0000E+00   0.0000E+00  -1.1505E+08      0.000
 --------------------------------------------------------------------------------

 
 SOLVING FOR HEAD 
     6 ITERATIONS FOR TIME STEP  54 IN STRESS PERIOD    1

 HEAD/DRAWDOWN PRINTOUT FLAG = 0     TOTAL BUDGET PRINTOUT FLAG = 0
 CELL-BY-CELL FLOW TERM FLAG = 1

 OUTPUT FLAGS FOR ALL LAYERS ARE THE SAME:
   HEAD    DRAWDOWN  HEAD  DRAWDOWN
 PRINTOUT  PRINTOUT  SAVE    SAVE
 ----------------------------------
     0         0       0       0



 STREAM LISTING     PERIOD      1   STEP       54

 LAYER ROW COL. STREAM  RCH.  FLOW INTO     FLOW TO   FLOW OUT OF   OVRLND.     DIRECT     STREAM       STREAM     STREAM     STREAM   STREAMBED  STREAMBED
                SEG.NO.  NO.  STRM. RCH.    AQUIFER    STRM. RCH.    RUNOFF     PRECIP       ET          HEAD       DEPTH      WIDTH   CONDCTNC.   GRADIENT

   1    2    5     1     1    6.9120E+05 -7.7345E+04   7.6854E+05  0.000E+00  0.000E+00  0.000E+00  1.25329E+02  1.380E+00  5.000E+00  5.000E+03 -3.094E+01
   1    3    5     1     2    7.6854E+05 -4.8664E+04   8.1721E+05  0.000E+00  0.000E+00  0.000E+00  1.24296E+02  1.451E+00  5.000E+00  5.000E+03 -1.947E+01
   1    4    5     1     3    8.1721E+05 -3.8359E+04   8.5557E+05  0.000E+00  0.000E+00  0.000E+00  1.23239E+02  1.498E+00  5.000E+00  5.000E+03 -1.534E+01
   1    4    6     1     4    8.5557E+05 -3.2093E+04   8.8766E+05  0.000E+00  0.000E+00  0.000E+00  1.22173E+02  1.535E+00  5.000E+00  5.000E+03 -1.284E+01
   1    4    7     1     5    8.8766E+05 -1.6102E+04   9.0376E+05  0.000E+00  0.000E+00  0.000E+00  1.21371E+02  1.561E+00  5.000E+00  2.500E+03 -1.288E+01
   1    4    8     1     6    9.0376E+05 -2.6588E+04   9.3035E+05  0.000E+00  0.000E+00  0.000E+00  1.20704E+02  1.583E+00  5.000E+00  3.750E+03 -1.418E+01
   1    5    8     1     7    9.3035E+05 -2.3963E+04   9.5431E+05  0.000E+00  0.000E+00  0.000E+00  1.19764E+02  1.609E+00  5.000E+00  5.000E+03 -9.585E+00
   1    6    8     1     8    9.5431E+05 -1.5546E+04   9.6986E+05  0.000E+00  0.000E+00  0.000E+00  1.18681E+02  1.629E+00  5.000E+00  5.000E+03 -6.218E+00
   1   12    9     2     1    1.1400E+06 -1.6723E+04   1.1567E+06  0.000E+00  0.000E+00  0.000E+00  1.16420E+02  1.980E+00  5.000E+00  5.000E+03 -6.689E+00
   1   13    9     2     2    1.1567E+06 -2.4915E+04   1.1816E+06  0.000E+00  0.000E+00  0.000E+00  1.15621E+02  2.002E+00  5.000E+00  5.000E+03 -9.966E+00
   1   14   10     2     3    1.1816E+06 -1.3617E+04   1.1953E+06  0.000E+00  0.000E+00  0.000E+00  1.15001E+02  2.021E+00  5.000E+00  2.795E+03 -9.744E+00
   1   14   10     2     4    1.1953E+06 -1.4859E+04   1.2101E+06  0.000E+00  0.000E+00  0.000E+00  1.14556E+02  2.036E+00  5.000E+00  2.795E+03 -1.063E+01
   1   15   10     2     5    1.2101E+06 -2.4950E+04   1.2351E+06  0.000E+00  0.000E+00  0.000E+00  1.13937E+02  2.056E+00  5.000E+00  5.000E+03 -9.980E+00
   1   16   10     2     6    1.2351E+06 -1.7398E+04   1.2525E+06  0.000E+00  0.000E+00  0.000E+00  1.13137E+02  2.077E+00  5.000E+00  5.000E+03 -6.959E+00
   1   22   10     3     1    1.4406E+06 -1.9495E+04   1.4601E+06  0.000E+00  0.000E+00  0.000E+00  1.11138E+02  2.183E+00  5.000E+00  5.000E+03 -7.798E+00
   1   23   10     3     2    1.4601E+06 -2.8310E+04   1.4884E+06  0.000E+00  0.000E+00  0.000E+00  1.10332E+02  2.204E+00  5.000E+00  3.750E+03 -1.510E+01
   1   23   11     3     3    1.4884E+06 -1.7754E+04   1.5062E+06  0.000E+00  0.000E+00  0.000E+00  1.09762E+02  2.225E+00  5.000E+00  2.500E+03 -1.420E+01
   1   23   12     3     4    1.5062E+06 -3.6766E+04   1.5429E+06  0.000E+00  0.000E+00  0.000E+00  1.09077E+02  2.249E+00  5.000E+00  5.000E+03 -1.471E+01
   1   23   13     3     5    1.5429E+06 -4.0658E+04   1.5836E+06  0.000E+00  0.000E+00  0.000E+00  1.08165E+02  2.283E+00  5.000E+00  5.000E+03 -1.626E+01
   1   23   14     3     6    1.5836E+06 -4.5852E+04   1.6295E+06  0.000E+00  0.000E+00  0.000E+00  1.07257E+02  2.321E+00  5.000E+00  5.000E+03 -1.834E+01
   1   23   15     3     7    1.6295E+06 -5.6194E+04   1.6857E+06  0.000E+00  0.000E+00  0.000E+00  1.06355E+02  2.365E+00  5.000E+00  5.000E+03 -2.248E+01
   1   23   16     3     8    1.6857E+06 -8.8303E+04   1.7740E+06  0.000E+00  0.000E+00  0.000E+00  1.05470E+02  2.426E+00  5.000E+00  5.000E+03 -3.532E+01





     0  LAKE CELLS ARE DRY.

 PERIOD     1     TIME STEP    54     TIME STEP LENGTH  5.7080E+00
 PERIOD TIME  2.7089E+02     TOTAL SIMULATION TIME  2.7089E+02


                 HYDROLOGIC BUDGET SUMMARIES FOR SIMULATED LAKES
     (ALL FLUID FLUXES ARE VOLUMES ADDED TO THE LAKE DURING PRESENT TIME STEP)
     -------------------------------------------------------------------------
 LAKE    STAGE         VOLUME     VOL.CHANGE      PRECIP     EVAPORATION        RUNOFF
   1   116.8213     8.3883E+07    4.3320E+04    4.1383E+05    3.6745E+05    0.0000E+00
   2   111.6026     5.1265E+07    6.4368E+04    4.1383E+05    3.6745E+05    0.0000E+00

            GROUND WATER            SURFACE WATER        WATER
 LAKE    INFLOW     OUTFLOW      INFLOW     OUTFLOW       USE
   1  9.6816E+05  0.0000E+00  5.5359E+06  6.5071E+06  0.0000E+00
   2  1.0919E+06  0.0000E+00  7.1491E+06  8.2230E+06  0.0000E+00

      CONNECTED LAKE   TIME-STEP         STAGE-CHANGE          PERCENT
 LAKE    INFLUX      SURFACE AREA   TIME STEP  CUMULATIVE    DISCREPANCY
   1   0.0000E+00     6.2500E+06   6.9317E-03 -1.3179E+01       0.000
   2   0.0000E+00     6.2500E+06   1.0299E-02 -1.8397E+01       0.000
 --------------------------------------------------------------------------------



            CUMULATIVE HYDROLOGIC BUDGET SUMMARIES FOR SIMULATED LAKES
     (ALL FLUID FLUXES ARE SUMS OF VOLUMES ADDED TO THE LAKE SINCE INITIAL TIME)
     ---------------------------------------------------------------------------
 LAKE       PRECIP       EVAP       RUNOFF
   1     1.9639E+07  1.7438E+07  0.0000E+00
   2     1.9639E+07  1.7438E+07  0.0000E+00

            GROUND WATER            SURFACE WATER
 LAKE    INFLOW     OUTFLOW      INFLOW     OUTFLOW
   1  2.3575E+07  1.5644E+06  2.2523E+08  3.3181E+08
   2  3.4355E+07  1.4259E+06  3.5139E+08  5.0150E+08

         WATER    CONNECTED LAKE   CHANGE       PERCENT
 LAKE     USE         INFLUX       IN VOL.    DISCREPANCY
   1   0.0000E+00   0.0000E+00  -8.2366E+07      0.000
   2   0.0000E+00   0.0000E+00  -1.1498E+08      0.000
 --------------------------------------------------------------------------------

 
 SOLVING FOR HEAD 
     6 ITERATIONS FOR TIME STEP  55 IN STRESS PERIOD    1

 HEAD/DRAWDOWN PRINTOUT FLAG = 0     TOTAL BUDGET PRINTOUT FLAG = 0
 CELL-BY-CELL FLOW TERM FLAG = 1

 OUTPUT FLAGS FOR ALL LAYERS ARE THE SAME:
   HEAD    DRAWDOWN  HEAD  DRAWDOWN
 PRINTOUT  PRINTOUT  SAVE    SAVE
 ----------------------------------
     0         0       0       0



 STREAM LISTING     PERIOD      1   STEP       55

 LAYER ROW COL. STREAM  RCH.  FLOW INTO     FLOW TO   FLOW OUT OF   OVRLND.     DIRECT     STREAM       STREAM     STREAM     STREAM   STREAMBED  STREAMBED
                SEG.NO.  NO.  STRM. RCH.    AQUIFER    STRM. RCH.    RUNOFF     PRECIP       ET          HEAD       DEPTH      WIDTH   CONDCTNC.   GRADIENT

   1    2    5     1     1    6.9120E+05 -7.7492E+04   7.6869E+05  0.000E+00  0.000E+00  0.000E+00  1.25329E+02  1.380E+00  5.000E+00  5.000E+03 -3.100E+01
   1    3    5     1     2    7.6869E+05 -4.9060E+04   8.1775E+05  0.000E+00  0.000E+00  0.000E+00  1.24296E+02  1.451E+00  5.000E+00  5.000E+03 -1.962E+01
   1    4    5     1     3    8.1775E+05 -3.9023E+04   8.5677E+05  0.000E+00  0.000E+00  0.000E+00  1.23240E+02  1.499E+00  5.000E+00  5.000E+03 -1.561E+01
   1    4    6     1     4    8.5677E+05 -3.2547E+04   8.8932E+05  0.000E+00  0.000E+00  0.000E+00  1.22175E+02  1.537E+00  5.000E+00  5.000E+03 -1.302E+01
   1    4    7     1     5    8.8932E+05 -1.6308E+04   9.0563E+05  0.000E+00  0.000E+00  0.000E+00  1.21373E+02  1.563E+00  5.000E+00  2.500E+03 -1.305E+01
   1    4    8     1     6    9.0563E+05 -2.6939E+04   9.3257E+05  0.000E+00  0.000E+00  0.000E+00  1.20706E+02  1.585E+00  5.000E+00  3.750E+03 -1.437E+01
   1    5    8     1     7    9.3257E+05 -2.4402E+04   9.5697E+05  0.000E+00  0.000E+00  0.000E+00  1.19767E+02  1.612E+00  5.000E+00  5.000E+03 -9.761E+00
   1    6    8     1     8    9.5697E+05 -1.5841E+04   9.7281E+05  0.000E+00  0.000E+00  0.000E+00  1.18684E+02  1.632E+00  5.000E+00  5.000E+03 -6.336E+00
   1   12    9     2     1    1.1466E+06 -1.6942E+04   1.1635E+06  0.000E+00  0.000E+00  0.000E+00  1.16427E+02  1.987E+00  5.000E+00  5.000E+03 -6.777E+00
   1   13    9     2     2    1.1635E+06 -2.5273E+04   1.1888E+06  0.000E+00  0.000E+00  0.000E+00  1.15628E+02  2.009E+00  5.000E+00  5.000E+03 -1.011E+01
   1   14   10     2     3    1.1888E+06 -1.3816E+04   1.2026E+06  0.000E+00  0.000E+00  0.000E+00  1.15008E+02  2.029E+00  5.000E+00  2.795E+03 -9.886E+00
   1   14   10     2     4    1.2026E+06 -1.5057E+04   1.2177E+06  0.000E+00  0.000E+00  0.000E+00  1.14564E+02  2.043E+00  5.000E+00  2.795E+03 -1.077E+01
   1   15   10     2     5    1.2177E+06 -2.5273E+04   1.2429E+06  0.000E+00  0.000E+00  0.000E+00  1.13945E+02  2.064E+00  5.000E+00  5.000E+03 -1.011E+01
   1   16   10     2     6    1.2429E+06 -1.7600E+04   1.2605E+06  0.000E+00  0.000E+00  0.000E+00  1.13145E+02  2.085E+00  5.000E+00  5.000E+03 -7.040E+00
   1   22   10     3     1    1.4519E+06 -1.9699E+04   1.4716E+06  0.000E+00  0.000E+00  0.000E+00  1.11149E+02  2.193E+00  5.000E+00  5.000E+03 -7.880E+00
   1   23   10     3     2    1.4716E+06 -2.8679E+04   1.5003E+06  0.000E+00  0.000E+00  0.000E+00  1.10343E+02  2.215E+00  5.000E+00  3.750E+03 -1.530E+01
   1   23   11     3     3    1.5003E+06 -1.7948E+04   1.5182E+06  0.000E+00  0.000E+00  0.000E+00  1.09772E+02  2.235E+00  5.000E+00  2.500E+03 -1.436E+01
   1   23   12     3     4    1.5182E+06 -3.7114E+04   1.5553E+06  0.000E+00  0.000E+00  0.000E+00  1.09087E+02  2.260E+00  5.000E+00  5.000E+03 -1.485E+01
   1   23   13     3     5    1.5553E+06 -4.1024E+04   1.5964E+06  0.000E+00  0.000E+00  0.000E+00  1.08176E+02  2.294E+00  5.000E+00  5.000E+03 -1.641E+01
   1   23   14     3     6    1.5964E+06 -4.6205E+04   1.6426E+06  0.000E+00  0.000E+00  0.000E+00  1.07268E+02  2.332E+00  5.000E+00  5.000E+03 -1.848E+01
   1   23   15     3     7    1.6426E+06 -5.6445E+04   1.6990E+06  0.000E+00  0.000E+00  0.000E+00  1.06366E+02  2.376E+00  5.000E+00  5.000E+03 -2.258E+01
   1   23   16     3     8    1.6990E+06 -8.8393E+04   1.7874E+06  0.000E+00  0.000E+00  0.000E+00  1.05482E+02  2.437E+00  5.000E+00  5.000E+03 -3.536E+01





     0  LAKE CELLS ARE DRY.

 PERIOD     1     TIME STEP    55     TIME STEP LENGTH  5.7365E+00
 PERIOD TIME  2.7662E+02     TOTAL SIMULATION TIME  2.7662E+02


                 HYDROLOGIC BUDGET SUMMARIES FOR SIMULATED LAKES
     (ALL FLUID FLUXES ARE VOLUMES ADDED TO THE LAKE DURING PRESENT TIME STEP)
     -------------------------------------------------------------------------
 LAKE    STAGE         VOLUME     VOL.CHANGE      PRECIP     EVAPORATION        RUNOFF
   1   116.8281     8.3925E+07    4.2576E+04    4.1590E+05    3.6929E+05    0.0000E+00
   2   111.6128     5.1329E+07    6.3744E+04    4.1590E+05    3.6929E+05    0.0000E+00

            GROUND WATER            SURFACE WATER        WATER
 LAKE    INFLOW     OUTFLOW      INFLOW     OUTFLOW       USE
   1  9.9280E+05  0.0000E+00  5.5805E+06  6.5774E+06  0.0000E+00
   2  1.1148E+06  0.0000E+00  7.2311E+06  8.3288E+06  0.0000E+00

      CONNECTED LAKE   TIME-STEP         STAGE-CHANGE          PERCENT
 LAKE    INFLUX      SURFACE AREA   TIME STEP  CUMULATIVE    DISCREPANCY
   1   0.0000E+00     6.2500E+06   6.8115E-03 -1.3172E+01       0.000
   2   0.0000E+00     6.2500E+06   1.0200E-02 -1.8387E+01       0.000
 --------------------------------------------------------------------------------



            CUMULATIVE HYDROLOGIC BUDGET SUMMARIES FOR SIMULATED LAKES
     (ALL FLUID FLUXES ARE SUMS OF VOLUMES ADDED TO THE LAKE SINCE INITIAL TIME)
     ---------------------------------------------------------------------------
 LAKE       PRECIP       EVAP       RUNOFF
   1     2.0055E+07  1.7808E+07  0.0000E+00
   2     2.0055E+07  1.7808E+07  0.0000E+00

            GROUND WATER            SURFACE WATER
 LAKE    INFLOW     OUTFLOW      INFLOW     OUTFLOW
   1  2.4567E+07  1.5644E+06  2.3081E+08  3.3839E+08
   2  3.5470E+07  1.4259E+06  3.5862E+08  5.0983E+08

         WATER    CONNECTED LAKE   CHANGE       PERCENT
 LAKE     USE         INFLUX       IN VOL.    DISCREPANCY
   1   0.0000E+00   0.0000E+00  -8.2323E+07      0.000
   2   0.0000E+00   0.0000E+00  -1.1492E+08      0.000
 --------------------------------------------------------------------------------

 
 SOLVING FOR HEAD 
     6 ITERATIONS FOR TIME STEP  56 IN STRESS PERIOD    1

 HEAD/DRAWDOWN PRINTOUT FLAG = 0     TOTAL BUDGET PRINTOUT FLAG = 0
 CELL-BY-CELL FLOW TERM FLAG = 1

 OUTPUT FLAGS FOR ALL LAYERS ARE THE SAME:
   HEAD    DRAWDOWN  HEAD  DRAWDOWN
 PRINTOUT  PRINTOUT  SAVE    SAVE
 ----------------------------------
     0         0       0       0



 STREAM LISTING     PERIOD      1   STEP       56

 LAYER ROW COL. STREAM  RCH.  FLOW INTO     FLOW TO   FLOW OUT OF   OVRLND.     DIRECT     STREAM       STREAM     STREAM     STREAM   STREAMBED  STREAMBED
                SEG.NO.  NO.  STRM. RCH.    AQUIFER    STRM. RCH.    RUNOFF     PRECIP       ET          HEAD       DEPTH      WIDTH   CONDCTNC.   GRADIENT

   1    2    5     1     1    6.9120E+05 -7.7631E+04   7.6883E+05  0.000E+00  0.000E+00  0.000E+00  1.25329E+02  1.381E+00  5.000E+00  5.000E+03 -3.105E+01
   1    3    5     1     2    7.6883E+05 -4.9435E+04   8.1827E+05  0.000E+00  0.000E+00  0.000E+00  1.24296E+02  1.451E+00  5.000E+00  5.000E+03 -1.977E+01
   1    4    5     1     3    8.1827E+05 -3.9661E+04   8.5793E+05  0.000E+00  0.000E+00  0.000E+00  1.23241E+02  1.500E+00  5.000E+00  5.000E+03 -1.586E+01
   1    4    6     1     4    8.5793E+05 -3.2986E+04   8.9091E+05  0.000E+00  0.000E+00  0.000E+00  1.22176E+02  1.538E+00  5.000E+00  5.000E+03 -1.319E+01
   1    4    7     1     5    8.9091E+05 -1.6508E+04   9.0742E+05  0.000E+00  0.000E+00  0.000E+00  1.21375E+02  1.564E+00  5.000E+00  2.500E+03 -1.321E+01
   1    4    8     1     6    9.0742E+05 -2.7277E+04   9.3470E+05  0.000E+00  0.000E+00  0.000E+00  1.20708E+02  1.587E+00  5.000E+00  3.750E+03 -1.455E+01
   1    5    8     1     7    9.3470E+05 -2.4833E+04   9.5953E+05  0.000E+00  0.000E+00  0.000E+00  1.19769E+02  1.614E+00  5.000E+00  5.000E+03 -9.933E+00
   1    6    8     1     8    9.5953E+05 -1.6134E+04   9.7566E+05  0.000E+00  0.000E+00  0.000E+00  1.18687E+02  1.635E+00  5.000E+00  5.000E+03 -6.453E+00
   1   12    9     2     1    1.1530E+06 -1.7161E+04   1.1702E+06  0.000E+00  0.000E+00  0.000E+00  1.16433E+02  1.994E+00  5.000E+00  5.000E+03 -6.864E+00
   1   13    9     2     2    1.1702E+06 -2.5631E+04   1.1958E+06  0.000E+00  0.000E+00  0.000E+00  1.15635E+02  2.016E+00  5.000E+00  5.000E+03 -1.025E+01
   1   14   10     2     3    1.1958E+06 -1.4015E+04   1.2099E+06  0.000E+00  0.000E+00  0.000E+00  1.15015E+02  2.036E+00  5.000E+00  2.795E+03 -1.003E+01
   1   14   10     2     4    1.2099E+06 -1.5256E+04   1.2251E+06  0.000E+00  0.000E+00  0.000E+00  1.14571E+02  2.051E+00  5.000E+00  2.795E+03 -1.092E+01
   1   15   10     2     5    1.2251E+06 -2.5596E+04   1.2507E+06  0.000E+00  0.000E+00  0.000E+00  1.13952E+02  2.071E+00  5.000E+00  5.000E+03 -1.024E+01
   1   16   10     2     6    1.2507E+06 -1.7804E+04   1.2685E+06  0.000E+00  0.000E+00  0.000E+00  1.13153E+02  2.093E+00  5.000E+00  5.000E+03 -7.121E+00
   1   22   10     3     1    1.4631E+06 -1.9904E+04   1.4830E+06  0.000E+00  0.000E+00  0.000E+00  1.11159E+02  2.203E+00  5.000E+00  5.000E+03 -7.961E+00
   1   23   10     3     2    1.4830E+06 -2.9045E+04   1.5120E+06  0.000E+00  0.000E+00  0.000E+00  1.10353E+02  2.225E+00  5.000E+00  3.750E+03 -1.549E+01
   1   23   11     3     3    1.5120E+06 -1.8139E+04   1.5301E+06  0.000E+00  0.000E+00  0.000E+00  1.09783E+02  2.246E+00  5.000E+00  2.500E+03 -1.451E+01
   1   23   12     3     4    1.5301E+06 -3.7456E+04   1.5676E+06  0.000E+00  0.000E+00  0.000E+00  1.09098E+02  2.271E+00  5.000E+00  5.000E+03 -1.498E+01
   1   23   13     3     5    1.5676E+06 -4.1383E+04   1.6090E+06  0.000E+00  0.000E+00  0.000E+00  1.08187E+02  2.305E+00  5.000E+00  5.000E+03 -1.655E+01
   1   23   14     3     6    1.6090E+06 -4.6546E+04   1.6555E+06  0.000E+00  0.000E+00  0.000E+00  1.07279E+02  2.343E+00  5.000E+00  5.000E+03 -1.862E+01
   1   23   15     3     7    1.6555E+06 -5.6685E+04   1.7122E+06  0.000E+00  0.000E+00  0.000E+00  1.06377E+02  2.387E+00  5.000E+00  5.000E+03 -2.267E+01
   1   23   16     3     8    1.7122E+06 -8.8477E+04   1.8007E+06  0.000E+00  0.000E+00  0.000E+00  1.05493E+02  2.448E+00  5.000E+00  5.000E+03 -3.539E+01





     0  LAKE CELLS ARE DRY.

 PERIOD     1     TIME STEP    56     TIME STEP LENGTH  5.7652E+00
 PERIOD TIME  2.8239E+02     TOTAL SIMULATION TIME  2.8239E+02


                 HYDROLOGIC BUDGET SUMMARIES FOR SIMULATED LAKES
     (ALL FLUID FLUXES ARE VOLUMES ADDED TO THE LAKE DURING PRESENT TIME STEP)
     -------------------------------------------------------------------------
 LAKE    STAGE         VOLUME     VOL.CHANGE      PRECIP     EVAPORATION        RUNOFF
   1   116.8348     8.3967E+07    4.1856E+04    4.1798E+05    3.7113E+05    0.0000E+00
   2   111.6229     5.1392E+07    6.3180E+04    4.1798E+05    3.7113E+05    0.0000E+00

            GROUND WATER            SURFACE WATER        WATER
 LAKE    INFLOW     OUTFLOW      INFLOW     OUTFLOW       USE
   1  1.0176E+06  0.0000E+00  5.6249E+06  6.6475E+06  0.0000E+00
   2  1.1380E+06  0.0000E+00  7.3132E+06  8.4348E+06  0.0000E+00

      CONNECTED LAKE   TIME-STEP         STAGE-CHANGE          PERCENT
 LAKE    INFLUX      SURFACE AREA   TIME STEP  CUMULATIVE    DISCREPANCY
   1   0.0000E+00     6.2500E+06   6.6968E-03 -1.3165E+01       0.000
   2   0.0000E+00     6.2500E+06   1.0109E-02 -1.8377E+01       0.000
 --------------------------------------------------------------------------------



            CUMULATIVE HYDROLOGIC BUDGET SUMMARIES FOR SIMULATED LAKES
     (ALL FLUID FLUXES ARE SUMS OF VOLUMES ADDED TO THE LAKE SINCE INITIAL TIME)
     ---------------------------------------------------------------------------
 LAKE       PRECIP       EVAP       RUNOFF
   1     2.0473E+07  1.8179E+07  0.0000E+00
   2     2.0473E+07  1.8179E+07  0.0000E+00

            GROUND WATER            SURFACE WATER
 LAKE    INFLOW     OUTFLOW      INFLOW     OUTFLOW
   1  2.5585E+07  1.5644E+06  2.3644E+08  3.4503E+08
   2  3.6607E+07  1.4259E+06  3.6593E+08  5.1826E+08

         WATER    CONNECTED LAKE   CHANGE       PERCENT
 LAKE     USE         INFLUX       IN VOL.    DISCREPANCY
   1   0.0000E+00   0.0000E+00  -8.2281E+07      0.000
   2   0.0000E+00   0.0000E+00  -1.1486E+08      0.000
 --------------------------------------------------------------------------------

 
 SOLVING FOR HEAD 
     6 ITERATIONS FOR TIME STEP  57 IN STRESS PERIOD    1

 HEAD/DRAWDOWN PRINTOUT FLAG = 0     TOTAL BUDGET PRINTOUT FLAG = 0
 CELL-BY-CELL FLOW TERM FLAG = 1

 OUTPUT FLAGS FOR ALL LAYERS ARE THE SAME:
   HEAD    DRAWDOWN  HEAD  DRAWDOWN
 PRINTOUT  PRINTOUT  SAVE    SAVE
 ----------------------------------
     0         0       0       0



 STREAM LISTING     PERIOD      1   STEP       57

 LAYER ROW COL. STREAM  RCH.  FLOW INTO     FLOW TO   FLOW OUT OF   OVRLND.     DIRECT     STREAM       STREAM     STREAM     STREAM   STREAMBED  STREAMBED
                SEG.NO.  NO.  STRM. RCH.    AQUIFER    STRM. RCH.    RUNOFF     PRECIP       ET          HEAD       DEPTH      WIDTH   CONDCTNC.   GRADIENT

   1    2    5     1     1    6.9120E+05 -7.7762E+04   7.6896E+05  0.000E+00  0.000E+00  0.000E+00  1.25329E+02  1.381E+00  5.000E+00  5.000E+03 -3.110E+01
   1    3    5     1     2    7.6896E+05 -4.9790E+04   8.1875E+05  0.000E+00  0.000E+00  0.000E+00  1.24297E+02  1.452E+00  5.000E+00  5.000E+03 -1.992E+01
   1    4    5     1     3    8.1875E+05 -4.0276E+04   8.5903E+05  0.000E+00  0.000E+00  0.000E+00  1.23242E+02  1.501E+00  5.000E+00  5.000E+03 -1.611E+01
   1    4    6     1     4    8.5903E+05 -3.3411E+04   8.9244E+05  0.000E+00  0.000E+00  0.000E+00  1.22178E+02  1.540E+00  5.000E+00  5.000E+03 -1.336E+01
   1    4    7     1     5    8.9244E+05 -1.6701E+04   9.0914E+05  0.000E+00  0.000E+00  0.000E+00  1.21376E+02  1.566E+00  5.000E+00  2.500E+03 -1.336E+01
   1    4    8     1     6    9.0914E+05 -2.7603E+04   9.3674E+05  0.000E+00  0.000E+00  0.000E+00  1.20710E+02  1.589E+00  5.000E+00  3.750E+03 -1.472E+01
   1    5    8     1     7    9.3674E+05 -2.5256E+04   9.6200E+05  0.000E+00  0.000E+00  0.000E+00  1.19771E+02  1.616E+00  5.000E+00  5.000E+03 -1.010E+01
   1    6    8     1     8    9.6200E+05 -1.6424E+04   9.7842E+05  0.000E+00  0.000E+00  0.000E+00  1.18689E+02  1.637E+00  5.000E+00  5.000E+03 -6.570E+00
   1   12    9     2     1    1.1594E+06 -1.7381E+04   1.1768E+06  0.000E+00  0.000E+00  0.000E+00  1.16440E+02  2.000E+00  5.000E+00  5.000E+03 -6.952E+00
   1   13    9     2     2    1.1768E+06 -2.5991E+04   1.2028E+06  0.000E+00  0.000E+00  0.000E+00  1.15642E+02  2.023E+00  5.000E+00  5.000E+03 -1.040E+01
   1   14   10     2     3    1.2028E+06 -1.4214E+04   1.2170E+06  0.000E+00  0.000E+00  0.000E+00  1.15022E+02  2.043E+00  5.000E+00  2.795E+03 -1.017E+01
   1   14   10     2     4    1.2170E+06 -1.5454E+04   1.2324E+06  0.000E+00  0.000E+00  0.000E+00  1.14579E+02  2.058E+00  5.000E+00  2.795E+03 -1.106E+01
   1   15   10     2     5    1.2324E+06 -2.5919E+04   1.2584E+06  0.000E+00  0.000E+00  0.000E+00  1.13960E+02  2.079E+00  5.000E+00  5.000E+03 -1.037E+01
   1   16   10     2     6    1.2584E+06 -1.8007E+04   1.2764E+06  0.000E+00  0.000E+00  0.000E+00  1.13161E+02  2.101E+00  5.000E+00  5.000E+03 -7.203E+00
   1   22   10     3     1    1.4742E+06 -2.0109E+04   1.4943E+06  0.000E+00  0.000E+00  0.000E+00  1.11169E+02  2.213E+00  5.000E+00  5.000E+03 -8.043E+00
   1   23   10     3     2    1.4943E+06 -2.9407E+04   1.5237E+06  0.000E+00  0.000E+00  0.000E+00  1.10363E+02  2.235E+00  5.000E+00  3.750E+03 -1.568E+01
   1   23   11     3     3    1.5237E+06 -1.8327E+04   1.5420E+06  0.000E+00  0.000E+00  0.000E+00  1.09793E+02  2.256E+00  5.000E+00  2.500E+03 -1.466E+01
   1   23   12     3     4    1.5420E+06 -3.7791E+04   1.5798E+06  0.000E+00  0.000E+00  0.000E+00  1.09109E+02  2.281E+00  5.000E+00  5.000E+03 -1.512E+01
   1   23   13     3     5    1.5798E+06 -4.1732E+04   1.6215E+06  0.000E+00  0.000E+00  0.000E+00  1.08198E+02  2.316E+00  5.000E+00  5.000E+03 -1.669E+01
   1   23   14     3     6    1.6215E+06 -4.6875E+04   1.6684E+06  0.000E+00  0.000E+00  0.000E+00  1.07290E+02  2.354E+00  5.000E+00  5.000E+03 -1.875E+01
   1   23   15     3     7    1.6684E+06 -5.6915E+04   1.7253E+06  0.000E+00  0.000E+00  0.000E+00  1.06388E+02  2.398E+00  5.000E+00  5.000E+03 -2.277E+01
   1   23   16     3     8    1.7253E+06 -8.8557E+04   1.8139E+06  0.000E+00  0.000E+00  0.000E+00  1.05504E+02  2.459E+00  5.000E+00  5.000E+03 -3.542E+01





     0  LAKE CELLS ARE DRY.

 PERIOD     1     TIME STEP    57     TIME STEP LENGTH  5.7940E+00
 PERIOD TIME  2.8818E+02     TOTAL SIMULATION TIME  2.8818E+02


                 HYDROLOGIC BUDGET SUMMARIES FOR SIMULATED LAKES
     (ALL FLUID FLUXES ARE VOLUMES ADDED TO THE LAKE DURING PRESENT TIME STEP)
     -------------------------------------------------------------------------
 LAKE    STAGE         VOLUME     VOL.CHANGE      PRECIP     EVAPORATION        RUNOFF
   1   116.8414     8.4008E+07    4.1136E+04    4.2007E+05    3.7299E+05    0.0000E+00
   2   111.6329     5.1455E+07    6.2416E+04    4.2007E+05    3.7299E+05    0.0000E+00

            GROUND WATER            SURFACE WATER        WATER
 LAKE    INFLOW     OUTFLOW      INFLOW     OUTFLOW       USE
   1  1.0426E+06  0.0000E+00  5.6690E+06  6.7175E+06  0.0000E+00
   2  1.1614E+06  0.0000E+00  7.3952E+06  8.5413E+06  0.0000E+00

      CONNECTED LAKE   TIME-STEP         STAGE-CHANGE          PERCENT
 LAKE    INFLUX      SURFACE AREA   TIME STEP  CUMULATIVE    DISCREPANCY
   1   0.0000E+00     6.2500E+06   6.5815E-03 -1.3159E+01       0.000
   2   0.0000E+00     6.2500E+06   9.9867E-03 -1.8367E+01       0.000
 --------------------------------------------------------------------------------



            CUMULATIVE HYDROLOGIC BUDGET SUMMARIES FOR SIMULATED LAKES
     (ALL FLUID FLUXES ARE SUMS OF VOLUMES ADDED TO THE LAKE SINCE INITIAL TIME)
     ---------------------------------------------------------------------------
 LAKE       PRECIP       EVAP       RUNOFF
   1     2.0893E+07  1.8552E+07  0.0000E+00
   2     2.0893E+07  1.8552E+07  0.0000E+00

            GROUND WATER            SURFACE WATER
 LAKE    INFLOW     OUTFLOW      INFLOW     OUTFLOW
   1  2.6628E+07  1.5644E+06  2.4211E+08  3.5175E+08
   2  3.7769E+07  1.4259E+06  3.7333E+08  5.2681E+08

         WATER    CONNECTED LAKE   CHANGE       PERCENT
 LAKE     USE         INFLUX       IN VOL.    DISCREPANCY
   1   0.0000E+00   0.0000E+00  -8.2240E+07      0.000
   2   0.0000E+00   0.0000E+00  -1.1479E+08      0.000
 --------------------------------------------------------------------------------

 
 SOLVING FOR HEAD 
     6 ITERATIONS FOR TIME STEP  58 IN STRESS PERIOD    1

 HEAD/DRAWDOWN PRINTOUT FLAG = 0     TOTAL BUDGET PRINTOUT FLAG = 0
 CELL-BY-CELL FLOW TERM FLAG = 1

 OUTPUT FLAGS FOR ALL LAYERS ARE THE SAME:
   HEAD    DRAWDOWN  HEAD  DRAWDOWN
 PRINTOUT  PRINTOUT  SAVE    SAVE
 ----------------------------------
     0         0       0       0



 STREAM LISTING     PERIOD      1   STEP       58

 LAYER ROW COL. STREAM  RCH.  FLOW INTO     FLOW TO   FLOW OUT OF   OVRLND.     DIRECT     STREAM       STREAM     STREAM     STREAM   STREAMBED  STREAMBED
                SEG.NO.  NO.  STRM. RCH.    AQUIFER    STRM. RCH.    RUNOFF     PRECIP       ET          HEAD       DEPTH      WIDTH   CONDCTNC.   GRADIENT

   1    2    5     1     1    6.9120E+05 -7.7885E+04   7.6909E+05  0.000E+00  0.000E+00  0.000E+00  1.25329E+02  1.381E+00  5.000E+00  5.000E+03 -3.115E+01
   1    3    5     1     2    7.6909E+05 -5.0127E+04   8.1921E+05  0.000E+00  0.000E+00  0.000E+00  1.24297E+02  1.452E+00  5.000E+00  5.000E+03 -2.005E+01
   1    4    5     1     3    8.1921E+05 -4.0867E+04   8.6008E+05  0.000E+00  0.000E+00  0.000E+00  1.23243E+02  1.501E+00  5.000E+00  5.000E+03 -1.635E+01
   1    4    6     1     4    8.6008E+05 -3.3821E+04   8.9390E+05  0.000E+00  0.000E+00  0.000E+00  1.22179E+02  1.541E+00  5.000E+00  5.000E+03 -1.353E+01
   1    4    7     1     5    8.9390E+05 -1.6887E+04   9.1079E+05  0.000E+00  0.000E+00  0.000E+00  1.21378E+02  1.568E+00  5.000E+00  2.500E+03 -1.351E+01
   1    4    8     1     6    9.1079E+05 -2.7917E+04   9.3870E+05  0.000E+00  0.000E+00  0.000E+00  1.20712E+02  1.591E+00  5.000E+00  3.750E+03 -1.489E+01
   1    5    8     1     7    9.3870E+05 -2.5671E+04   9.6438E+05  0.000E+00  0.000E+00  0.000E+00  1.19774E+02  1.618E+00  5.000E+00  5.000E+03 -1.027E+01
   1    6    8     1     8    9.6438E+05 -1.6711E+04   9.8109E+05  0.000E+00  0.000E+00  0.000E+00  1.18692E+02  1.640E+00  5.000E+00  5.000E+03 -6.684E+00
   1   12    9     2     1    1.1656E+06 -1.7601E+04   1.1832E+06  0.000E+00  0.000E+00  0.000E+00  1.16447E+02  2.007E+00  5.000E+00  5.000E+03 -7.040E+00
   1   13    9     2     2    1.1832E+06 -2.6351E+04   1.2096E+06  0.000E+00  0.000E+00  0.000E+00  1.15648E+02  2.029E+00  5.000E+00  5.000E+03 -1.054E+01
   1   14   10     2     3    1.2096E+06 -1.4412E+04   1.2240E+06  0.000E+00  0.000E+00  0.000E+00  1.15029E+02  2.050E+00  5.000E+00  2.795E+03 -1.031E+01
   1   14   10     2     4    1.2240E+06 -1.5652E+04   1.2397E+06  0.000E+00  0.000E+00  0.000E+00  1.14586E+02  2.065E+00  5.000E+00  2.795E+03 -1.120E+01
   1   15   10     2     5    1.2397E+06 -2.6243E+04   1.2659E+06  0.000E+00  0.000E+00  0.000E+00  1.13967E+02  2.086E+00  5.000E+00  5.000E+03 -1.050E+01
   1   16   10     2     6    1.2659E+06 -1.8211E+04   1.2841E+06  0.000E+00  0.000E+00  0.000E+00  1.13169E+02  2.108E+00  5.000E+00  5.000E+03 -7.284E+00
   1   22   10     3     1    1.4852E+06 -2.0314E+04   1.5055E+06  0.000E+00  0.000E+00  0.000E+00  1.11179E+02  2.223E+00  5.000E+00  5.000E+03 -8.125E+00
   1   23   10     3     2    1.5055E+06 -2.9765E+04   1.5353E+06  0.000E+00  0.000E+00  0.000E+00  1.10373E+02  2.245E+00  5.000E+00  3.750E+03 -1.587E+01
   1   23   11     3     3    1.5353E+06 -1.8513E+04   1.5538E+06  0.000E+00  0.000E+00  0.000E+00  1.09804E+02  2.267E+00  5.000E+00  2.500E+03 -1.481E+01
   1   23   12     3     4    1.5538E+06 -3.8120E+04   1.5919E+06  0.000E+00  0.000E+00  0.000E+00  1.09119E+02  2.292E+00  5.000E+00  5.000E+03 -1.525E+01
   1   23   13     3     5    1.5919E+06 -4.2073E+04   1.6340E+06  0.000E+00  0.000E+00  0.000E+00  1.08208E+02  2.326E+00  5.000E+00  5.000E+03 -1.683E+01
   1   23   14     3     6    1.6340E+06 -4.7191E+04   1.6812E+06  0.000E+00  0.000E+00  0.000E+00  1.07301E+02  2.365E+00  5.000E+00  5.000E+03 -1.888E+01
   1   23   15     3     7    1.6812E+06 -5.7135E+04   1.7383E+06  0.000E+00  0.000E+00  0.000E+00  1.06399E+02  2.409E+00  5.000E+00  5.000E+03 -2.285E+01
   1   23   16     3     8    1.7383E+06 -8.8632E+04   1.8269E+06  0.000E+00  0.000E+00  0.000E+00  1.05515E+02  2.470E+00  5.000E+00  5.000E+03 -3.545E+01





     0  LAKE CELLS ARE DRY.

 PERIOD     1     TIME STEP    58     TIME STEP LENGTH  5.8230E+00
 PERIOD TIME  2.9400E+02     TOTAL SIMULATION TIME  2.9400E+02


                 HYDROLOGIC BUDGET SUMMARIES FOR SIMULATED LAKES
     (ALL FLUID FLUXES ARE VOLUMES ADDED TO THE LAKE DURING PRESENT TIME STEP)
     -------------------------------------------------------------------------
 LAKE    STAGE         VOLUME     VOL.CHANGE      PRECIP     EVAPORATION        RUNOFF
   1   116.8479     8.4048E+07    4.0416E+04    4.2217E+05    3.7485E+05    0.0000E+00
   2   111.6427     5.1516E+07    6.1480E+04    4.2217E+05    3.7485E+05    0.0000E+00

            GROUND WATER            SURFACE WATER        WATER
 LAKE    INFLOW     OUTFLOW      INFLOW     OUTFLOW       USE
   1  1.0677E+06  0.0000E+00  5.7129E+06  6.7875E+06  0.0000E+00
   2  1.1851E+06  0.0000E+00  7.4773E+06  8.6483E+06  0.0000E+00

      CONNECTED LAKE   TIME-STEP         STAGE-CHANGE          PERCENT
 LAKE    INFLUX      SURFACE AREA   TIME STEP  CUMULATIVE    DISCREPANCY
   1   0.0000E+00     6.2500E+06   6.4665E-03 -1.3152E+01       0.000
   2   0.0000E+00     6.2500E+06   9.8370E-03 -1.8357E+01       0.000
 --------------------------------------------------------------------------------



            CUMULATIVE HYDROLOGIC BUDGET SUMMARIES FOR SIMULATED LAKES
     (ALL FLUID FLUXES ARE SUMS OF VOLUMES ADDED TO THE LAKE SINCE INITIAL TIME)
     ---------------------------------------------------------------------------
 LAKE       PRECIP       EVAP       RUNOFF
   1     2.1315E+07  1.8927E+07  0.0000E+00
   2     2.1315E+07  1.8927E+07  0.0000E+00

            GROUND WATER            SURFACE WATER
 LAKE    INFLOW     OUTFLOW      INFLOW     OUTFLOW
   1  2.7695E+07  1.5644E+06  2.4782E+08  3.5854E+08
   2  3.8954E+07  1.4259E+06  3.8081E+08  5.3545E+08

         WATER    CONNECTED LAKE   CHANGE       PERCENT
 LAKE     USE         INFLUX       IN VOL.    DISCREPANCY
   1   0.0000E+00   0.0000E+00  -8.2200E+07      0.000
   2   0.0000E+00   0.0000E+00  -1.1473E+08      0.000
 --------------------------------------------------------------------------------

 
 SOLVING FOR HEAD 
     6 ITERATIONS FOR TIME STEP  59 IN STRESS PERIOD    1

 HEAD/DRAWDOWN PRINTOUT FLAG = 0     TOTAL BUDGET PRINTOUT FLAG = 0
 CELL-BY-CELL FLOW TERM FLAG = 1

 OUTPUT FLAGS FOR ALL LAYERS ARE THE SAME:
   HEAD    DRAWDOWN  HEAD  DRAWDOWN
 PRINTOUT  PRINTOUT  SAVE    SAVE
 ----------------------------------
     0         0       0       0



 STREAM LISTING     PERIOD      1   STEP       59

 LAYER ROW COL. STREAM  RCH.  FLOW INTO     FLOW TO   FLOW OUT OF   OVRLND.     DIRECT     STREAM       STREAM     STREAM     STREAM   STREAMBED  STREAMBED
                SEG.NO.  NO.  STRM. RCH.    AQUIFER    STRM. RCH.    RUNOFF     PRECIP       ET          HEAD       DEPTH      WIDTH   CONDCTNC.   GRADIENT

   1    2    5     1     1    6.9120E+05 -7.8002E+04   7.6920E+05  0.000E+00  0.000E+00  0.000E+00  1.25329E+02  1.381E+00  5.000E+00  5.000E+03 -3.120E+01
   1    3    5     1     2    7.6920E+05 -5.0446E+04   8.1965E+05  0.000E+00  0.000E+00  0.000E+00  1.24297E+02  1.452E+00  5.000E+00  5.000E+03 -2.018E+01
   1    4    5     1     3    8.1965E+05 -4.1435E+04   8.6108E+05  0.000E+00  0.000E+00  0.000E+00  1.23244E+02  1.502E+00  5.000E+00  5.000E+03 -1.657E+01
   1    4    6     1     4    8.6108E+05 -3.4219E+04   8.9530E+05  0.000E+00  0.000E+00  0.000E+00  1.22180E+02  1.542E+00  5.000E+00  5.000E+03 -1.369E+01
   1    4    7     1     5    8.9530E+05 -1.7067E+04   9.1237E+05  0.000E+00  0.000E+00  0.000E+00  1.21380E+02  1.569E+00  5.000E+00  2.500E+03 -1.365E+01
   1    4    8     1     6    9.1237E+05 -2.8219E+04   9.4059E+05  0.000E+00  0.000E+00  0.000E+00  1.20713E+02  1.593E+00  5.000E+00  3.750E+03 -1.505E+01
   1    5    8     1     7    9.4059E+05 -2.6078E+04   9.6667E+05  0.000E+00  0.000E+00  0.000E+00  1.19776E+02  1.621E+00  5.000E+00  5.000E+03 -1.043E+01
   1    6    8     1     8    9.6667E+05 -1.6995E+04   9.8366E+05  0.000E+00  0.000E+00  0.000E+00  1.18694E+02  1.642E+00  5.000E+00  5.000E+03 -6.798E+00
   1   12    9     2     1    1.1718E+06 -1.7821E+04   1.1896E+06  0.000E+00  0.000E+00  0.000E+00  1.16453E+02  2.013E+00  5.000E+00  5.000E+03 -7.128E+00
   1   13    9     2     2    1.1896E+06 -2.6712E+04   1.2163E+06  0.000E+00  0.000E+00  0.000E+00  1.15655E+02  2.036E+00  5.000E+00  5.000E+03 -1.068E+01
   1   14   10     2     3    1.2163E+06 -1.4611E+04   1.2309E+06  0.000E+00  0.000E+00  0.000E+00  1.15036E+02  2.057E+00  5.000E+00  2.795E+03 -1.046E+01
   1   14   10     2     4    1.2309E+06 -1.5850E+04   1.2468E+06  0.000E+00  0.000E+00  0.000E+00  1.14593E+02  2.072E+00  5.000E+00  2.795E+03 -1.134E+01
   1   15   10     2     5    1.2468E+06 -2.6567E+04   1.2734E+06  0.000E+00  0.000E+00  0.000E+00  1.13974E+02  2.093E+00  5.000E+00  5.000E+03 -1.063E+01
   1   16   10     2     6    1.2734E+06 -1.8415E+04   1.2918E+06  0.000E+00  0.000E+00  0.000E+00  1.13176E+02  2.116E+00  5.000E+00  5.000E+03 -7.366E+00
   1   22   10     3     1    1.4961E+06 -2.0519E+04   1.5166E+06  0.000E+00  0.000E+00  0.000E+00  1.11189E+02  2.233E+00  5.000E+00  5.000E+03 -8.207E+00
   1   23   10     3     2    1.5166E+06 -3.0118E+04   1.5467E+06  0.000E+00  0.000E+00  0.000E+00  1.10383E+02  2.255E+00  5.000E+00  3.750E+03 -1.606E+01
   1   23   11     3     3    1.5467E+06 -1.8695E+04   1.5654E+06  0.000E+00  0.000E+00  0.000E+00  1.09814E+02  2.277E+00  5.000E+00  2.500E+03 -1.496E+01
   1   23   12     3     4    1.5654E+06 -3.8442E+04   1.6039E+06  0.000E+00  0.000E+00  0.000E+00  1.09129E+02  2.302E+00  5.000E+00  5.000E+03 -1.538E+01
   1   23   13     3     5    1.6039E+06 -4.2406E+04   1.6463E+06  0.000E+00  0.000E+00  0.000E+00  1.08219E+02  2.337E+00  5.000E+00  5.000E+03 -1.696E+01
   1   23   14     3     6    1.6463E+06 -4.7497E+04   1.6938E+06  0.000E+00  0.000E+00  0.000E+00  1.07311E+02  2.375E+00  5.000E+00  5.000E+03 -1.900E+01
   1   23   15     3     7    1.6938E+06 -5.7345E+04   1.7511E+06  0.000E+00  0.000E+00  0.000E+00  1.06410E+02  2.420E+00  5.000E+00  5.000E+03 -2.294E+01
   1   23   16     3     8    1.7511E+06 -8.8704E+04   1.8398E+06  0.000E+00  0.000E+00  0.000E+00  1.05525E+02  2.481E+00  5.000E+00  5.000E+03 -3.548E+01





     0  LAKE CELLS ARE DRY.

 PERIOD     1     TIME STEP    59     TIME STEP LENGTH  5.8521E+00
 PERIOD TIME  2.9986E+02     TOTAL SIMULATION TIME  2.9986E+02


                 HYDROLOGIC BUDGET SUMMARIES FOR SIMULATED LAKES
     (ALL FLUID FLUXES ARE VOLUMES ADDED TO THE LAKE DURING PRESENT TIME STEP)
     -------------------------------------------------------------------------
 LAKE    STAGE         VOLUME     VOL.CHANGE      PRECIP     EVAPORATION        RUNOFF
   1   116.8542     8.4088E+07    3.9472E+04    4.2428E+05    3.7673E+05    0.0000E+00
   2   111.6525     5.1577E+07    6.0820E+04    4.2428E+05    3.7673E+05    0.0000E+00

            GROUND WATER            SURFACE WATER        WATER
 LAKE    INFLOW     OUTFLOW      INFLOW     OUTFLOW       USE
   1  1.0929E+06  0.0000E+00  5.7565E+06  6.8575E+06  0.0000E+00
   2  1.2091E+06  0.0000E+00  7.5596E+06  8.7554E+06  0.0000E+00

      CONNECTED LAKE   TIME-STEP         STAGE-CHANGE          PERCENT
 LAKE    INFLUX      SURFACE AREA   TIME STEP  CUMULATIVE    DISCREPANCY
   1   0.0000E+00     6.2500E+06   6.3159E-03 -1.3146E+01       0.000
   2   0.0000E+00     6.2500E+06   9.7319E-03 -1.8348E+01       0.000
 --------------------------------------------------------------------------------



            CUMULATIVE HYDROLOGIC BUDGET SUMMARIES FOR SIMULATED LAKES
     (ALL FLUID FLUXES ARE SUMS OF VOLUMES ADDED TO THE LAKE SINCE INITIAL TIME)
     ---------------------------------------------------------------------------
 LAKE       PRECIP       EVAP       RUNOFF
   1     2.1740E+07  1.9303E+07  0.0000E+00
   2     2.1740E+07  1.9303E+07  0.0000E+00

            GROUND WATER            SURFACE WATER
 LAKE    INFLOW     OUTFLOW      INFLOW     OUTFLOW
   1  2.8788E+07  1.5644E+06  2.5358E+08  3.6540E+08
   2  4.0163E+07  1.4259E+06  3.8837E+08  5.4421E+08

         WATER    CONNECTED LAKE   CHANGE       PERCENT
 LAKE     USE         INFLUX       IN VOL.    DISCREPANCY
   1   0.0000E+00   0.0000E+00  -8.2160E+07      0.000
   2   0.0000E+00   0.0000E+00  -1.1467E+08      0.000
 --------------------------------------------------------------------------------

 
 SOLVING FOR HEAD 
     6 ITERATIONS FOR TIME STEP  60 IN STRESS PERIOD    1

 HEAD/DRAWDOWN PRINTOUT FLAG = 1     TOTAL BUDGET PRINTOUT FLAG = 1
 CELL-BY-CELL FLOW TERM FLAG = 1

 OUTPUT FLAGS FOR EACH LAYER:
          HEAD    DRAWDOWN  HEAD  DRAWDOWN
 LAYER  PRINTOUT  PRINTOUT  SAVE    SAVE
 -----------------------------------------
    1       0         0       0       0
    2       0         0       0       0
    3       0         0       0       0
    4       0         0       0       0
    5       1         0       0       0



 STREAM LISTING     PERIOD      1   STEP       60

 LAYER ROW COL. STREAM  RCH.  FLOW INTO     FLOW TO   FLOW OUT OF   OVRLND.     DIRECT     STREAM       STREAM     STREAM     STREAM   STREAMBED  STREAMBED
                SEG.NO.  NO.  STRM. RCH.    AQUIFER    STRM. RCH.    RUNOFF     PRECIP       ET          HEAD       DEPTH      WIDTH   CONDCTNC.   GRADIENT

   1    2    5     1     1    6.9120E+05 -7.8112E+04   7.6931E+05  0.000E+00  0.000E+00  0.000E+00  1.25329E+02  1.381E+00  5.000E+00  5.000E+03 -3.124E+01
   1    3    5     1     2    7.6931E+05 -5.0749E+04   8.2006E+05  0.000E+00  0.000E+00  0.000E+00  1.24298E+02  1.453E+00  5.000E+00  5.000E+03 -2.030E+01
   1    4    5     1     3    8.2006E+05 -4.1982E+04   8.6204E+05  0.000E+00  0.000E+00  0.000E+00  1.23244E+02  1.503E+00  5.000E+00  5.000E+03 -1.679E+01
   1    4    6     1     4    8.6204E+05 -3.4602E+04   8.9664E+05  0.000E+00  0.000E+00  0.000E+00  1.22182E+02  1.544E+00  5.000E+00  5.000E+03 -1.384E+01
   1    4    7     1     5    8.9664E+05 -1.7241E+04   9.1389E+05  0.000E+00  0.000E+00  0.000E+00  1.21381E+02  1.571E+00  5.000E+00  2.500E+03 -1.379E+01
   1    4    8     1     6    9.1389E+05 -2.8510E+04   9.4240E+05  0.000E+00  0.000E+00  0.000E+00  1.20715E+02  1.594E+00  5.000E+00  3.750E+03 -1.521E+01
   1    5    8     1     7    9.4240E+05 -2.6476E+04   9.6887E+05  0.000E+00  0.000E+00  0.000E+00  1.19778E+02  1.623E+00  5.000E+00  5.000E+03 -1.059E+01
   1    6    8     1     8    9.6887E+05 -1.7276E+04   9.8615E+05  0.000E+00  0.000E+00  0.000E+00  1.18697E+02  1.645E+00  5.000E+00  5.000E+03 -6.910E+00
   1   12    9     2     1    1.1778E+06 -1.8041E+04   1.1959E+06  0.000E+00  0.000E+00  0.000E+00  1.16459E+02  2.020E+00  5.000E+00  5.000E+03 -7.216E+00
   1   13    9     2     2    1.1959E+06 -2.7073E+04   1.2230E+06  0.000E+00  0.000E+00  0.000E+00  1.15662E+02  2.043E+00  5.000E+00  5.000E+03 -1.083E+01
   1   14   10     2     3    1.2230E+06 -1.4809E+04   1.2378E+06  0.000E+00  0.000E+00  0.000E+00  1.15043E+02  2.064E+00  5.000E+00  2.795E+03 -1.060E+01
   1   14   10     2     4    1.2378E+06 -1.6048E+04   1.2538E+06  0.000E+00  0.000E+00  0.000E+00  1.14600E+02  2.079E+00  5.000E+00  2.795E+03 -1.148E+01
   1   15   10     2     5    1.2538E+06 -2.6891E+04   1.2807E+06  0.000E+00  0.000E+00  0.000E+00  1.13982E+02  2.101E+00  5.000E+00  5.000E+03 -1.076E+01
   1   16   10     2     6    1.2807E+06 -1.8619E+04   1.2993E+06  0.000E+00  0.000E+00  0.000E+00  1.13183E+02  2.123E+00  5.000E+00  5.000E+03 -7.448E+00
   1   22   10     3     1    1.5069E+06 -2.0724E+04   1.5276E+06  0.000E+00  0.000E+00  0.000E+00  1.11198E+02  2.243E+00  5.000E+00  5.000E+03 -8.289E+00
   1   23   10     3     2    1.5276E+06 -3.0466E+04   1.5581E+06  0.000E+00  0.000E+00  0.000E+00  1.10393E+02  2.265E+00  5.000E+00  3.750E+03 -1.625E+01
   1   23   11     3     3    1.5581E+06 -1.8875E+04   1.5770E+06  0.000E+00  0.000E+00  0.000E+00  1.09824E+02  2.287E+00  5.000E+00  2.500E+03 -1.510E+01
   1   23   12     3     4    1.5770E+06 -3.8758E+04   1.6157E+06  0.000E+00  0.000E+00  0.000E+00  1.09140E+02  2.312E+00  5.000E+00  5.000E+03 -1.550E+01
   1   23   13     3     5    1.6157E+06 -4.2730E+04   1.6585E+06  0.000E+00  0.000E+00  0.000E+00  1.08229E+02  2.347E+00  5.000E+00  5.000E+03 -1.709E+01
   1   23   14     3     6    1.6585E+06 -4.7791E+04   1.7063E+06  0.000E+00  0.000E+00  0.000E+00  1.07322E+02  2.386E+00  5.000E+00  5.000E+03 -1.912E+01
   1   23   15     3     7    1.7063E+06 -5.7546E+04   1.7638E+06  0.000E+00  0.000E+00  0.000E+00  1.06421E+02  2.431E+00  5.000E+00  5.000E+03 -2.302E+01
   1   23   16     3     8    1.7638E+06 -8.8771E+04   1.8526E+06  0.000E+00  0.000E+00  0.000E+00  1.05536E+02  2.492E+00  5.000E+00  5.000E+03 -3.551E+01





     0  LAKE CELLS ARE DRY.

 PERIOD     1     TIME STEP    60     TIME STEP LENGTH  5.8814E+00
 PERIOD TIME  3.0574E+02     TOTAL SIMULATION TIME  3.0574E+02


                 HYDROLOGIC BUDGET SUMMARIES FOR SIMULATED LAKES
     (ALL FLUID FLUXES ARE VOLUMES ADDED TO THE LAKE DURING PRESENT TIME STEP)
     -------------------------------------------------------------------------
 LAKE    STAGE         VOLUME     VOL.CHANGE      PRECIP     EVAPORATION        RUNOFF
   1   116.8604     8.4126E+07    3.8536E+04    4.2640E+05    3.7861E+05    0.0000E+00
   2   111.6621     5.1637E+07    6.0192E+04    4.2640E+05    3.7861E+05    0.0000E+00

            GROUND WATER            SURFACE WATER        WATER
 LAKE    INFLOW     OUTFLOW      INFLOW     OUTFLOW       USE
   1  1.1182E+06  0.0000E+00  5.7999E+06  6.9273E+06  0.0000E+00
   2  1.2333E+06  0.0000E+00  7.6418E+06  8.8627E+06  0.0000E+00

      CONNECTED LAKE   TIME-STEP         STAGE-CHANGE          PERCENT
 LAKE    INFLUX      SURFACE AREA   TIME STEP  CUMULATIVE    DISCREPANCY
   1   0.0000E+00     6.2500E+06   6.1647E-03 -1.3140E+01       0.000
   2   0.0000E+00     6.2500E+06   9.6305E-03 -1.8338E+01       0.000
 --------------------------------------------------------------------------------



            CUMULATIVE HYDROLOGIC BUDGET SUMMARIES FOR SIMULATED LAKES
     (ALL FLUID FLUXES ARE SUMS OF VOLUMES ADDED TO THE LAKE SINCE INITIAL TIME)
     ---------------------------------------------------------------------------
 LAKE       PRECIP       EVAP       RUNOFF
   1     2.2166E+07  1.9682E+07  0.0000E+00
   2     2.2166E+07  1.9682E+07  0.0000E+00

            GROUND WATER            SURFACE WATER
 LAKE    INFLOW     OUTFLOW      INFLOW     OUTFLOW
   1  2.9906E+07  1.5644E+06  2.5938E+08  3.7232E+08
   2  4.1396E+07  1.4259E+06  3.9601E+08  5.5307E+08

         WATER    CONNECTED LAKE   CHANGE       PERCENT
 LAKE     USE         INFLUX       IN VOL.    DISCREPANCY
   1   0.0000E+00   0.0000E+00  -8.2122E+07      0.000
   2   0.0000E+00   0.0000E+00  -1.1461E+08      0.000
 --------------------------------------------------------------------------------

1
              HEAD IN LAYER   5 AT END OF TIME STEP  60 IN STRESS PERIOD    1
  ---------------------------------------------------------------------------

          1      2      3      4      5      6      7      8      9     10
 .........................................................................
   1   160.0  158.9  157.3  155.8  154.2  152.7  151.5  150.8  150.0  149.2
   2   160.0  157.9  154.7  150.5  141.0  146.2  146.5  146.4  146.1  145.6
   3   160.0  156.9  152.0  145.8  134.5  138.6  139.2  139.5  140.0  140.3
   4   160.0  156.2  150.3  143.4  131.7  129.1  128.3  128.3  132.6  134.8
   5   160.0  155.9  149.6  143.2  136.1  131.3  127.9  125.1  128.3  130.5
   6   160.0  155.7  149.2  142.8  136.4  130.3  125.1  122.2  123.8  125.2
   7   160.0  155.6  148.9  142.5  135.8  128.0  117.4  117.0  117.1  117.1
   8   160.0  155.5  148.8  142.4  135.6  127.3  117.2  116.9  116.9  116.9
   9   160.0  155.5  148.8  142.3  135.4  127.1  117.2  116.9  116.9  116.9
  10   160.0  155.5  148.7  142.2  135.4  127.3  117.2  116.9  116.9  116.9
  11   160.0  155.5  148.7  142.3  135.6  127.9  117.4  117.1  117.0  117.0
  12   160.0  155.5  148.7  142.4  136.2  130.1  125.2  122.7  120.1  122.2
  13   160.0  155.5  148.8  142.5  136.7  131.6  127.8  124.9  121.1  123.7
  14   160.0  155.5  148.8  142.5  136.8  132.0  128.7  126.3  123.5  120.4
  15   160.0  155.5  148.7  142.3  136.3  131.1  127.5  125.2  122.6  119.4
  16   160.0  155.5  148.6  142.0  135.4  128.6  123.2  120.8  118.9  116.9
  17   160.0  155.4  148.6  141.8  134.5  125.4  112.4  112.0  111.9  111.8
  18   160.0  155.5  148.6  141.8  134.2  124.4  112.1  111.7  111.7  111.7
  19   160.0  155.5  148.6  141.8  134.2  124.2  112.1  111.7  111.7  111.7
  20   160.0  155.5  148.7  142.0  134.5  124.7  112.1  111.7  111.7  111.7
  21   160.0  155.6  148.9  142.4  135.2  126.0  112.5  112.0  111.9  111.8
  22   160.0  155.7  149.3  143.1  136.9  130.1  124.3  121.5  118.8  115.4
  23   160.0  156.0  150.2  144.8  139.9  135.1  131.4  128.6  124.8  118.5
  24   160.0  156.5  151.5  147.1  143.3  140.0  137.7  136.1  134.5  132.9
  25   160.0  157.2  153.3  149.9  147.0  144.6  143.0  142.0  141.0  140.1
  26   160.0  158.1  155.5  153.3  151.2  149.4  148.1  147.3  146.5  145.7
  27   160.0  158.9  157.3  155.8  154.2  152.7  151.5  150.8  150.0  149.2
1
              HEAD IN LAYER   5 AT END OF TIME STEP  60 IN STRESS PERIOD    1
  ---------------------------------------------------------------------------

         11     12     13     14     15     16     17
 ....................................................
   1   148.5  147.3  145.8  144.2  142.7  141.1  140.0
   2   145.1  144.3  143.2  142.0  141.0  140.2  140.0
   3   140.4  140.3  139.7  139.3  139.1  139.4  140.0
   4   135.9  136.7  137.0  137.2  137.7  138.8  140.0
   5   132.0  133.7  134.9  135.7  136.8  138.5  140.0
   6   126.8  130.3  133.2  134.8  136.3  138.3  140.0
   7   117.5  127.2  132.1  134.3  136.1  138.2  140.0
   8   117.2  126.2  131.7  134.1  136.0  138.2  140.0
   9   117.1  125.9  131.5  134.0  135.9  138.2  140.0
  10   117.2  125.9  131.4  134.0  135.9  138.1  140.0
  11   117.4  126.5  131.6  134.0  135.9  138.1  140.0
  12   124.3  128.4  132.0  134.1  135.9  138.1  140.0
  13   126.1  129.3  132.3  134.1  135.9  138.1  140.0
  14   124.6  128.8  132.1  134.1  135.9  138.1  140.0
  15   123.4  127.9  131.6  133.9  135.8  138.1  140.0
  16   120.4  125.9  130.8  133.5  135.6  138.0  140.0
  17   112.3  123.2  129.7  133.0  135.3  137.9  140.0
  18   112.0  122.3  129.1  132.6  135.0  137.8  140.0
  19   112.0  121.7  128.4  132.0  134.5  137.5  140.0
  20   112.0  121.3  127.7  131.1  133.8  137.1  140.0
  21   112.1  121.1  126.6  129.8  132.5  136.3  140.0
  22   117.5  121.1  124.2  126.7  129.4  134.0  140.0
  23   117.4  116.9  116.8  116.9  118.0  123.3  140.0
  24   131.8  130.8  130.2  130.2  131.2  134.6  140.0
  25   139.3  138.2  137.2  136.7  136.8  138.1  140.0
  26   144.9  143.8  142.5  141.3  140.4  139.9  140.0
  27   148.5  147.3  145.8  144.2  142.7  141.1  140.0
1
  VOLUMETRIC BUDGET FOR ENTIRE MODEL AT END OF TIME STEP 60 IN STRESS PERIOD   1
  ------------------------------------------------------------------------------

     CUMULATIVE VOLUMES      L**3       RATES FOR THIS TIME STEP      L**3/T
     ------------------                 ------------------------

           IN:                                      IN:
           ---                                      ---
             STORAGE =     2934567.7500               STORAGE =           0.0000
       CONSTANT HEAD =   623030720.0000         CONSTANT HEAD =      834825.5000
                  ET =           0.0000                    ET =           0.0000
            RECHARGE =   842307456.0000              RECHARGE =     2755000.0000
     SPECIFIED FLOWS =           0.0000       SPECIFIED FLOWS =           0.0000
      STREAM LEAKAGE =     3694574.2500        STREAM LEAKAGE =           0.0000
       LAKE  SEEPAGE =     2990331.7500         LAKE  SEEPAGE =           0.0000

            TOTAL IN =  1474957696.0000              TOTAL IN =     3589825.5000

          OUT:                                     OUT:
          ----                                     ----
             STORAGE =  1081152128.0000               STORAGE =     1296258.7500
       CONSTANT HEAD =       29610.3418         CONSTANT HEAD =         792.4446
                  ET =   163123168.0000                    ET =     1130870.2500
            RECHARGE =           0.0000              RECHARGE =           0.0000
     SPECIFIED FLOWS =           0.0000       SPECIFIED FLOWS =           0.0000
      STREAM LEAKAGE =   159347664.0000        STREAM LEAKAGE =      762089.3750
       LAKE  SEEPAGE =    71302832.0000         LAKE  SEEPAGE =      399818.2188

           TOTAL OUT =  1474955392.0000             TOTAL OUT =     3589829.0000

            IN - OUT =        2304.0000              IN - OUT =          -3.5000

 PERCENT DISCREPANCY =           0.00     PERCENT DISCREPANCY =           0.00






          TIME SUMMARY AT END OF TIME STEP  60 IN STRESS PERIOD    1
                    SECONDS     MINUTES      HOURS       DAYS        YEARS
                    -----------------------------------------------------------
   TIME STEP LENGTH 5.08149E+05  8469.2      141.15      5.8814     1.61023E-02
 STRESS PERIOD TIME 2.64157E+07 4.40262E+05  7337.7      305.74     0.83706    
         TOTAL TIME 2.64157E+07 4.40262E+05  7337.7      305.74     0.83706    
1
 
 SOLVING FOR HEAD 
     6 ITERATIONS FOR TIME STEP  61 IN STRESS PERIOD    1

 HEAD/DRAWDOWN PRINTOUT FLAG = 0     TOTAL BUDGET PRINTOUT FLAG = 0
 CELL-BY-CELL FLOW TERM FLAG = 1

 OUTPUT FLAGS FOR ALL LAYERS ARE THE SAME:
   HEAD    DRAWDOWN  HEAD  DRAWDOWN
 PRINTOUT  PRINTOUT  SAVE    SAVE
 ----------------------------------
     0         0       0       0



 STREAM LISTING     PERIOD      1   STEP       61

 LAYER ROW COL. STREAM  RCH.  FLOW INTO     FLOW TO   FLOW OUT OF   OVRLND.     DIRECT     STREAM       STREAM     STREAM     STREAM   STREAMBED  STREAMBED
                SEG.NO.  NO.  STRM. RCH.    AQUIFER    STRM. RCH.    RUNOFF     PRECIP       ET          HEAD       DEPTH      WIDTH   CONDCTNC.   GRADIENT

   1    2    5     1     1    6.9120E+05 -7.8215E+04   7.6942E+05  0.000E+00  0.000E+00  0.000E+00  1.25329E+02  1.381E+00  5.000E+00  5.000E+03 -3.129E+01
   1    3    5     1     2    7.6942E+05 -5.1036E+04   8.2045E+05  0.000E+00  0.000E+00  0.000E+00  1.24298E+02  1.453E+00  5.000E+00  5.000E+03 -2.041E+01
   1    4    5     1     3    8.2045E+05 -4.2506E+04   8.6296E+05  0.000E+00  0.000E+00  0.000E+00  1.23245E+02  1.504E+00  5.000E+00  5.000E+03 -1.700E+01
   1    4    6     1     4    8.6296E+05 -3.4974E+04   8.9793E+05  0.000E+00  0.000E+00  0.000E+00  1.22183E+02  1.545E+00  5.000E+00  5.000E+03 -1.399E+01
   1    4    7     1     5    8.9793E+05 -1.7408E+04   9.1534E+05  0.000E+00  0.000E+00  0.000E+00  1.21383E+02  1.572E+00  5.000E+00  2.500E+03 -1.393E+01
   1    4    8     1     6    9.1534E+05 -2.8789E+04   9.4413E+05  0.000E+00  0.000E+00  0.000E+00  1.20717E+02  1.596E+00  5.000E+00  3.750E+03 -1.535E+01
   1    5    8     1     7    9.4413E+05 -2.6865E+04   9.7099E+05  0.000E+00  0.000E+00  0.000E+00  1.19780E+02  1.625E+00  5.000E+00  5.000E+03 -1.075E+01
   1    6    8     1     8    9.7099E+05 -1.7553E+04   9.8855E+05  0.000E+00  0.000E+00  0.000E+00  1.18699E+02  1.647E+00  5.000E+00  5.000E+03 -7.021E+00
   1   12    9     2     1    1.1838E+06 -1.8261E+04   1.2020E+06  0.000E+00  0.000E+00  0.000E+00  1.16465E+02  2.026E+00  5.000E+00  5.000E+03 -7.304E+00
   1   13    9     2     2    1.2020E+06 -2.7435E+04   1.2295E+06  0.000E+00  0.000E+00  0.000E+00  1.15668E+02  2.049E+00  5.000E+00  5.000E+03 -1.097E+01
   1   14   10     2     3    1.2295E+06 -1.5007E+04   1.2445E+06  0.000E+00  0.000E+00  0.000E+00  1.15050E+02  2.070E+00  5.000E+00  2.795E+03 -1.074E+01
   1   14   10     2     4    1.2445E+06 -1.6246E+04   1.2607E+06  0.000E+00  0.000E+00  0.000E+00  1.14607E+02  2.086E+00  5.000E+00  2.795E+03 -1.162E+01
   1   15   10     2     5    1.2607E+06 -2.7215E+04   1.2879E+06  0.000E+00  0.000E+00  0.000E+00  1.13989E+02  2.108E+00  5.000E+00  5.000E+03 -1.089E+01
   1   16   10     2     6    1.2879E+06 -1.8823E+04   1.3067E+06  0.000E+00  0.000E+00  0.000E+00  1.13191E+02  2.130E+00  5.000E+00  5.000E+03 -7.529E+00
   1   22   10     3     1    1.5176E+06 -2.0928E+04   1.5385E+06  0.000E+00  0.000E+00  0.000E+00  1.11208E+02  2.252E+00  5.000E+00  5.000E+03 -8.371E+00
   1   23   10     3     2    1.5385E+06 -3.0810E+04   1.5693E+06  0.000E+00  0.000E+00  0.000E+00  1.10403E+02  2.275E+00  5.000E+00  3.750E+03 -1.643E+01
   1   23   11     3     3    1.5693E+06 -1.9051E+04   1.5884E+06  0.000E+00  0.000E+00  0.000E+00  1.09834E+02  2.297E+00  5.000E+00  2.500E+03 -1.524E+01
   1   23   12     3     4    1.5884E+06 -3.9067E+04   1.6274E+06  0.000E+00  0.000E+00  0.000E+00  1.09150E+02  2.322E+00  5.000E+00  5.000E+03 -1.563E+01
   1   23   13     3     5    1.6274E+06 -4.3045E+04   1.6705E+06  0.000E+00  0.000E+00  0.000E+00  1.08239E+02  2.357E+00  5.000E+00  5.000E+03 -1.722E+01
   1   23   14     3     6    1.6705E+06 -4.8074E+04   1.7186E+06  0.000E+00  0.000E+00  0.000E+00  1.07332E+02  2.396E+00  5.000E+00  5.000E+03 -1.923E+01
   1   23   15     3     7    1.7186E+06 -5.7738E+04   1.7763E+06  0.000E+00  0.000E+00  0.000E+00  1.06431E+02  2.441E+00  5.000E+00  5.000E+03 -2.310E+01
   1   23   16     3     8    1.7763E+06 -8.8835E+04   1.8651E+06  0.000E+00  0.000E+00  0.000E+00  1.05546E+02  2.502E+00  5.000E+00  5.000E+03 -3.553E+01





     0  LAKE CELLS ARE DRY.

 PERIOD     1     TIME STEP    61     TIME STEP LENGTH  5.9108E+00
 PERIOD TIME  3.1165E+02     TOTAL SIMULATION TIME  3.1165E+02


                 HYDROLOGIC BUDGET SUMMARIES FOR SIMULATED LAKES
     (ALL FLUID FLUXES ARE VOLUMES ADDED TO THE LAKE DURING PRESENT TIME STEP)
     -------------------------------------------------------------------------
 LAKE    STAGE         VOLUME     VOL.CHANGE      PRECIP     EVAPORATION        RUNOFF
   1   116.8664     8.4164E+07    3.7656E+04    4.2853E+05    3.8051E+05    0.0000E+00
   2   111.6716     5.1697E+07    5.9456E+04    4.2853E+05    3.8051E+05    0.0000E+00

            GROUND WATER            SURFACE WATER        WATER
 LAKE    INFLOW     OUTFLOW      INFLOW     OUTFLOW       USE
   1  1.1435E+06  0.0000E+00  5.8431E+06  6.9969E+06  0.0000E+00
   2  1.2576E+06  0.0000E+00  7.7239E+06  8.9701E+06  0.0000E+00

      CONNECTED LAKE   TIME-STEP         STAGE-CHANGE          PERCENT
 LAKE    INFLUX      SURFACE AREA   TIME STEP  CUMULATIVE    DISCREPANCY
   1   0.0000E+00     6.2500E+06   6.0250E-03 -1.3134E+01       0.000
   2   0.0000E+00     6.2500E+06   9.5134E-03 -1.8328E+01       0.000
 --------------------------------------------------------------------------------



            CUMULATIVE HYDROLOGIC BUDGET SUMMARIES FOR SIMULATED LAKES
     (ALL FLUID FLUXES ARE SUMS OF VOLUMES ADDED TO THE LAKE SINCE INITIAL TIME)
     ---------------------------------------------------------------------------
 LAKE       PRECIP       EVAP       RUNOFF
   1     2.2595E+07  2.0062E+07  0.0000E+00
   2     2.2595E+07  2.0062E+07  0.0000E+00

            GROUND WATER            SURFACE WATER
 LAKE    INFLOW     OUTFLOW      INFLOW     OUTFLOW
   1  3.1050E+07  1.5644E+06  2.6522E+08  3.7932E+08
   2  4.2654E+07  1.4259E+06  4.0373E+08  5.6204E+08

         WATER    CONNECTED LAKE   CHANGE       PERCENT
 LAKE     USE         INFLUX       IN VOL.    DISCREPANCY
   1   0.0000E+00   0.0000E+00  -8.2084E+07      0.000
   2   0.0000E+00   0.0000E+00  -1.1455E+08      0.000
 --------------------------------------------------------------------------------

 
 SOLVING FOR HEAD 
     6 ITERATIONS FOR TIME STEP  62 IN STRESS PERIOD    1

 HEAD/DRAWDOWN PRINTOUT FLAG = 0     TOTAL BUDGET PRINTOUT FLAG = 0
 CELL-BY-CELL FLOW TERM FLAG = 1

 OUTPUT FLAGS FOR ALL LAYERS ARE THE SAME:
   HEAD    DRAWDOWN  HEAD  DRAWDOWN
 PRINTOUT  PRINTOUT  SAVE    SAVE
 ----------------------------------
     0         0       0       0



 STREAM LISTING     PERIOD      1   STEP       62

 LAYER ROW COL. STREAM  RCH.  FLOW INTO     FLOW TO   FLOW OUT OF   OVRLND.     DIRECT     STREAM       STREAM     STREAM     STREAM   STREAMBED  STREAMBED
                SEG.NO.  NO.  STRM. RCH.    AQUIFER    STRM. RCH.    RUNOFF     PRECIP       ET          HEAD       DEPTH      WIDTH   CONDCTNC.   GRADIENT

   1    2    5     1     1    6.9120E+05 -7.8313E+04   7.6951E+05  0.000E+00  0.000E+00  0.000E+00  1.25329E+02  1.381E+00  5.000E+00  5.000E+03 -3.133E+01
   1    3    5     1     2    7.6951E+05 -5.1308E+04   8.2082E+05  0.000E+00  0.000E+00  0.000E+00  1.24298E+02  1.453E+00  5.000E+00  5.000E+03 -2.052E+01
   1    4    5     1     3    8.2082E+05 -4.3010E+04   8.6383E+05  0.000E+00  0.000E+00  0.000E+00  1.23246E+02  1.504E+00  5.000E+00  5.000E+03 -1.720E+01
   1    4    6     1     4    8.6383E+05 -3.5333E+04   8.9916E+05  0.000E+00  0.000E+00  0.000E+00  1.22184E+02  1.546E+00  5.000E+00  5.000E+03 -1.413E+01
   1    4    7     1     5    8.9916E+05 -1.7570E+04   9.1673E+05  0.000E+00  0.000E+00  0.000E+00  1.21384E+02  1.574E+00  5.000E+00  2.500E+03 -1.406E+01
   1    4    8     1     6    9.1673E+05 -2.9057E+04   9.4579E+05  0.000E+00  0.000E+00  0.000E+00  1.20718E+02  1.598E+00  5.000E+00  3.750E+03 -1.550E+01
   1    5    8     1     7    9.4579E+05 -2.7246E+04   9.7304E+05  0.000E+00  0.000E+00  0.000E+00  1.19782E+02  1.627E+00  5.000E+00  5.000E+03 -1.090E+01
   1    6    8     1     8    9.7304E+05 -1.7826E+04   9.9086E+05  0.000E+00  0.000E+00  0.000E+00  1.18701E+02  1.649E+00  5.000E+00  5.000E+03 -7.130E+00
   1   12    9     2     1    1.1895E+06 -1.8481E+04   1.2080E+06  0.000E+00  0.000E+00  0.000E+00  1.16471E+02  2.032E+00  5.000E+00  5.000E+03 -7.392E+00
   1   13    9     2     2    1.2080E+06 -2.7798E+04   1.2358E+06  0.000E+00  0.000E+00  0.000E+00  1.15674E+02  2.055E+00  5.000E+00  5.000E+03 -1.112E+01
   1   14   10     2     3    1.2358E+06 -1.5205E+04   1.2510E+06  0.000E+00  0.000E+00  0.000E+00  1.15056E+02  2.077E+00  5.000E+00  2.795E+03 -1.088E+01
   1   14   10     2     4    1.2510E+06 -1.6443E+04   1.2675E+06  0.000E+00  0.000E+00  0.000E+00  1.14613E+02  2.093E+00  5.000E+00  2.795E+03 -1.177E+01
   1   15   10     2     5    1.2675E+06 -2.7539E+04   1.2950E+06  0.000E+00  0.000E+00  0.000E+00  1.13995E+02  2.114E+00  5.000E+00  5.000E+03 -1.102E+01
   1   16   10     2     6    1.2950E+06 -1.9027E+04   1.3140E+06  0.000E+00  0.000E+00  0.000E+00  1.13198E+02  2.137E+00  5.000E+00  5.000E+03 -7.611E+00
   1   22   10     3     1    1.5281E+06 -2.1132E+04   1.5493E+06  0.000E+00  0.000E+00  0.000E+00  1.11217E+02  2.262E+00  5.000E+00  5.000E+03 -8.453E+00
   1   23   10     3     2    1.5493E+06 -3.1147E+04   1.5804E+06  0.000E+00  0.000E+00  0.000E+00  1.10413E+02  2.285E+00  5.000E+00  3.750E+03 -1.661E+01
   1   23   11     3     3    1.5804E+06 -1.9224E+04   1.5996E+06  0.000E+00  0.000E+00  0.000E+00  1.09843E+02  2.307E+00  5.000E+00  2.500E+03 -1.538E+01
   1   23   12     3     4    1.5996E+06 -3.9369E+04   1.6390E+06  0.000E+00  0.000E+00  0.000E+00  1.09160E+02  2.332E+00  5.000E+00  5.000E+03 -1.575E+01
   1   23   13     3     5    1.6390E+06 -4.3352E+04   1.6824E+06  0.000E+00  0.000E+00  0.000E+00  1.08249E+02  2.368E+00  5.000E+00  5.000E+03 -1.734E+01
   1   23   14     3     6    1.6824E+06 -4.8347E+04   1.7307E+06  0.000E+00  0.000E+00  0.000E+00  1.07342E+02  2.407E+00  5.000E+00  5.000E+03 -1.934E+01
   1   23   15     3     7    1.7307E+06 -5.7922E+04   1.7886E+06  0.000E+00  0.000E+00  0.000E+00  1.06441E+02  2.451E+00  5.000E+00  5.000E+03 -2.317E+01
   1   23   16     3     8    1.7886E+06 -8.8896E+04   1.8775E+06  0.000E+00  0.000E+00  0.000E+00  1.05556E+02  2.512E+00  5.000E+00  5.000E+03 -3.556E+01





     0  LAKE CELLS ARE DRY.

 PERIOD     1     TIME STEP    62     TIME STEP LENGTH  5.9403E+00
 PERIOD TIME  3.1759E+02     TOTAL SIMULATION TIME  3.1759E+02


                 HYDROLOGIC BUDGET SUMMARIES FOR SIMULATED LAKES
     (ALL FLUID FLUXES ARE VOLUMES ADDED TO THE LAKE DURING PRESENT TIME STEP)
     -------------------------------------------------------------------------
 LAKE    STAGE         VOLUME     VOL.CHANGE      PRECIP     EVAPORATION        RUNOFF
   1   116.8723     8.4201E+07    3.6864E+04    4.3067E+05    3.8241E+05    0.0000E+00
   2   111.6810     5.1755E+07    5.8636E+04    4.3067E+05    3.8241E+05    0.0000E+00

            GROUND WATER            SURFACE WATER        WATER
 LAKE    INFLOW     OUTFLOW      INFLOW     OUTFLOW       USE
   1  1.1688E+06  0.0000E+00  5.8860E+06  7.0663E+06  0.0000E+00
   2  1.2822E+06  0.0000E+00  7.8058E+06  9.0777E+06  0.0000E+00

      CONNECTED LAKE   TIME-STEP         STAGE-CHANGE          PERCENT
 LAKE    INFLUX      SURFACE AREA   TIME STEP  CUMULATIVE    DISCREPANCY
   1   0.0000E+00     6.2500E+06   5.8978E-03 -1.3128E+01       0.000
   2   0.0000E+00     6.2500E+06   9.3822E-03 -1.8319E+01       0.000
 --------------------------------------------------------------------------------



            CUMULATIVE HYDROLOGIC BUDGET SUMMARIES FOR SIMULATED LAKES
     (ALL FLUID FLUXES ARE SUMS OF VOLUMES ADDED TO THE LAKE SINCE INITIAL TIME)
     ---------------------------------------------------------------------------
 LAKE       PRECIP       EVAP       RUNOFF
   1     2.3025E+07  2.0445E+07  0.0000E+00
   2     2.3025E+07  2.0445E+07  0.0000E+00

            GROUND WATER            SURFACE WATER
 LAKE    INFLOW     OUTFLOW      INFLOW     OUTFLOW
   1  3.2219E+07  1.5644E+06  2.7111E+08  3.8639E+08
   2  4.3936E+07  1.4259E+06  4.1154E+08  5.7112E+08

         WATER    CONNECTED LAKE   CHANGE       PERCENT
 LAKE     USE         INFLUX       IN VOL.    DISCREPANCY
   1   0.0000E+00   0.0000E+00  -8.2047E+07      0.000
   2   0.0000E+00   0.0000E+00  -1.1449E+08      0.000
 --------------------------------------------------------------------------------

 
 SOLVING FOR HEAD 
     6 ITERATIONS FOR TIME STEP  63 IN STRESS PERIOD    1

 HEAD/DRAWDOWN PRINTOUT FLAG = 0     TOTAL BUDGET PRINTOUT FLAG = 0
 CELL-BY-CELL FLOW TERM FLAG = 1

 OUTPUT FLAGS FOR ALL LAYERS ARE THE SAME:
   HEAD    DRAWDOWN  HEAD  DRAWDOWN
 PRINTOUT  PRINTOUT  SAVE    SAVE
 ----------------------------------
     0         0       0       0



 STREAM LISTING     PERIOD      1   STEP       63

 LAYER ROW COL. STREAM  RCH.  FLOW INTO     FLOW TO   FLOW OUT OF   OVRLND.     DIRECT     STREAM       STREAM     STREAM     STREAM   STREAMBED  STREAMBED
                SEG.NO.  NO.  STRM. RCH.    AQUIFER    STRM. RCH.    RUNOFF     PRECIP       ET          HEAD       DEPTH      WIDTH   CONDCTNC.   GRADIENT

   1    2    5     1     1    6.9120E+05 -7.8406E+04   7.6961E+05  0.000E+00  0.000E+00  0.000E+00  1.25329E+02  1.381E+00  5.000E+00  5.000E+03 -3.136E+01
   1    3    5     1     2    7.6961E+05 -5.1567E+04   8.2117E+05  0.000E+00  0.000E+00  0.000E+00  1.24298E+02  1.453E+00  5.000E+00  5.000E+03 -2.063E+01
   1    4    5     1     3    8.2117E+05 -4.3494E+04   8.6467E+05  0.000E+00  0.000E+00  0.000E+00  1.23246E+02  1.505E+00  5.000E+00  5.000E+03 -1.740E+01
   1    4    6     1     4    8.6467E+05 -3.5679E+04   9.0035E+05  0.000E+00  0.000E+00  0.000E+00  1.22185E+02  1.547E+00  5.000E+00  5.000E+03 -1.427E+01
   1    4    7     1     5    9.0035E+05 -1.7726E+04   9.1807E+05  0.000E+00  0.000E+00  0.000E+00  1.21385E+02  1.575E+00  5.000E+00  2.500E+03 -1.418E+01
   1    4    8     1     6    9.1807E+05 -2.9315E+04   9.4739E+05  0.000E+00  0.000E+00  0.000E+00  1.20720E+02  1.599E+00  5.000E+00  3.750E+03 -1.563E+01
   1    5    8     1     7    9.4739E+05 -2.7617E+04   9.7500E+05  0.000E+00  0.000E+00  0.000E+00  1.19784E+02  1.628E+00  5.000E+00  5.000E+03 -1.105E+01
   1    6    8     1     8    9.7500E+05 -1.8095E+04   9.9310E+05  0.000E+00  0.000E+00  0.000E+00  1.18703E+02  1.651E+00  5.000E+00  5.000E+03 -7.238E+00
   1   12    9     2     1    1.1952E+06 -1.8700E+04   1.2139E+06  0.000E+00  0.000E+00  0.000E+00  1.16477E+02  2.038E+00  5.000E+00  5.000E+03 -7.480E+00
   1   13    9     2     2    1.2139E+06 -2.8160E+04   1.2421E+06  0.000E+00  0.000E+00  0.000E+00  1.15680E+02  2.061E+00  5.000E+00  5.000E+03 -1.126E+01
   1   14   10     2     3    1.2421E+06 -1.5402E+04   1.2575E+06  0.000E+00  0.000E+00  0.000E+00  1.15063E+02  2.083E+00  5.000E+00  2.795E+03 -1.102E+01
   1   14   10     2     4    1.2575E+06 -1.6639E+04   1.2741E+06  0.000E+00  0.000E+00  0.000E+00  1.14620E+02  2.099E+00  5.000E+00  2.795E+03 -1.191E+01
   1   15   10     2     5    1.2741E+06 -2.7862E+04   1.3020E+06  0.000E+00  0.000E+00  0.000E+00  1.14002E+02  2.121E+00  5.000E+00  5.000E+03 -1.114E+01
   1   16   10     2     6    1.3020E+06 -1.9230E+04   1.3212E+06  0.000E+00  0.000E+00  0.000E+00  1.13205E+02  2.144E+00  5.000E+00  5.000E+03 -7.692E+00
   1   22   10     3     1    1.5386E+06 -2.1334E+04   1.5600E+06  0.000E+00  0.000E+00  0.000E+00  1.11227E+02  2.271E+00  5.000E+00  5.000E+03 -8.534E+00
   1   23   10     3     2    1.5600E+06 -3.1479E+04   1.5914E+06  0.000E+00  0.000E+00  0.000E+00  1.10422E+02  2.294E+00  5.000E+00  3.750E+03 -1.679E+01
   1   23   11     3     3    1.5914E+06 -1.9394E+04   1.6108E+06  0.000E+00  0.000E+00  0.000E+00  1.09853E+02  2.316E+00  5.000E+00  2.500E+03 -1.552E+01
   1   23   12     3     4    1.6108E+06 -3.9665E+04   1.6505E+06  0.000E+00  0.000E+00  0.000E+00  1.09169E+02  2.342E+00  5.000E+00  5.000E+03 -1.587E+01
   1   23   13     3     5    1.6505E+06 -4.3649E+04   1.6941E+06  0.000E+00  0.000E+00  0.000E+00  1.08259E+02  2.377E+00  5.000E+00  5.000E+03 -1.746E+01
   1   23   14     3     6    1.6941E+06 -4.8610E+04   1.7427E+06  0.000E+00  0.000E+00  0.000E+00  1.07353E+02  2.417E+00  5.000E+00  5.000E+03 -1.944E+01
   1   23   15     3     7    1.7427E+06 -5.8098E+04   1.8008E+06  0.000E+00  0.000E+00  0.000E+00  1.06451E+02  2.461E+00  5.000E+00  5.000E+03 -2.324E+01
   1   23   16     3     8    1.8008E+06 -8.8953E+04   1.8898E+06  0.000E+00  0.000E+00  0.000E+00  1.05566E+02  2.522E+00  5.000E+00  5.000E+03 -3.558E+01





     0  LAKE CELLS ARE DRY.

 PERIOD     1     TIME STEP    63     TIME STEP LENGTH  5.9700E+00
 PERIOD TIME  3.2356E+02     TOTAL SIMULATION TIME  3.2356E+02


                 HYDROLOGIC BUDGET SUMMARIES FOR SIMULATED LAKES
     (ALL FLUID FLUXES ARE VOLUMES ADDED TO THE LAKE DURING PRESENT TIME STEP)
     -------------------------------------------------------------------------
 LAKE    STAGE         VOLUME     VOL.CHANGE      PRECIP     EVAPORATION        RUNOFF
   1   116.8781     8.4237E+07    3.6056E+04    4.3283E+05    3.8432E+05    0.0000E+00
   2   111.6902     5.1813E+07    5.7488E+04    4.3283E+05    3.8432E+05    0.0000E+00

            GROUND WATER            SURFACE WATER        WATER
 LAKE    INFLOW     OUTFLOW      INFLOW     OUTFLOW       USE
   1  1.1941E+06  0.0000E+00  5.9288E+06  7.1354E+06  0.0000E+00
   2  1.3070E+06  0.0000E+00  7.8876E+06  9.1856E+06  0.0000E+00

      CONNECTED LAKE   TIME-STEP         STAGE-CHANGE          PERCENT
 LAKE    INFLUX      SURFACE AREA   TIME STEP  CUMULATIVE    DISCREPANCY
   1   0.0000E+00     6.2500E+06   5.7688E-03 -1.3122E+01       0.000
   2   0.0000E+00     6.2500E+06   9.1981E-03 -1.8310E+01       0.000
 --------------------------------------------------------------------------------



            CUMULATIVE HYDROLOGIC BUDGET SUMMARIES FOR SIMULATED LAKES
     (ALL FLUID FLUXES ARE SUMS OF VOLUMES ADDED TO THE LAKE SINCE INITIAL TIME)
     ---------------------------------------------------------------------------
 LAKE       PRECIP       EVAP       RUNOFF
   1     2.3458E+07  2.0829E+07  0.0000E+00
   2     2.3458E+07  2.0829E+07  0.0000E+00

            GROUND WATER            SURFACE WATER
 LAKE    INFLOW     OUTFLOW      INFLOW     OUTFLOW
   1  3.3413E+07  1.5644E+06  2.7703E+08  3.9352E+08
   2  4.5243E+07  1.4259E+06  4.1942E+08  5.8031E+08

         WATER    CONNECTED LAKE   CHANGE       PERCENT
 LAKE     USE         INFLUX       IN VOL.    DISCREPANCY
   1   0.0000E+00   0.0000E+00  -8.2011E+07      0.000
   2   0.0000E+00   0.0000E+00  -1.1444E+08      0.000
 --------------------------------------------------------------------------------

 
 SOLVING FOR HEAD 
     6 ITERATIONS FOR TIME STEP  64 IN STRESS PERIOD    1

 HEAD/DRAWDOWN PRINTOUT FLAG = 0     TOTAL BUDGET PRINTOUT FLAG = 0
 CELL-BY-CELL FLOW TERM FLAG = 1

 OUTPUT FLAGS FOR ALL LAYERS ARE THE SAME:
   HEAD    DRAWDOWN  HEAD  DRAWDOWN
 PRINTOUT  PRINTOUT  SAVE    SAVE
 ----------------------------------
     0         0       0       0



 STREAM LISTING     PERIOD      1   STEP       64

 LAYER ROW COL. STREAM  RCH.  FLOW INTO     FLOW TO   FLOW OUT OF   OVRLND.     DIRECT     STREAM       STREAM     STREAM     STREAM   STREAMBED  STREAMBED
                SEG.NO.  NO.  STRM. RCH.    AQUIFER    STRM. RCH.    RUNOFF     PRECIP       ET          HEAD       DEPTH      WIDTH   CONDCTNC.   GRADIENT

   1    2    5     1     1    6.9120E+05 -7.8493E+04   7.6969E+05  0.000E+00  0.000E+00  0.000E+00  1.25329E+02  1.381E+00  5.000E+00  5.000E+03 -3.140E+01
   1    3    5     1     2    7.6969E+05 -5.1812E+04   8.2150E+05  0.000E+00  0.000E+00  0.000E+00  1.24299E+02  1.454E+00  5.000E+00  5.000E+03 -2.072E+01
   1    4    5     1     3    8.2150E+05 -4.3959E+04   8.6546E+05  0.000E+00  0.000E+00  0.000E+00  1.23247E+02  1.506E+00  5.000E+00  5.000E+03 -1.758E+01
   1    4    6     1     4    8.6546E+05 -3.6015E+04   9.0148E+05  0.000E+00  0.000E+00  0.000E+00  1.22186E+02  1.548E+00  5.000E+00  5.000E+03 -1.441E+01
   1    4    7     1     5    9.0148E+05 -1.7876E+04   9.1935E+05  0.000E+00  0.000E+00  0.000E+00  1.21386E+02  1.576E+00  5.000E+00  2.500E+03 -1.430E+01
   1    4    8     1     6    9.1935E+05 -2.9563E+04   9.4892E+05  0.000E+00  0.000E+00  0.000E+00  1.20721E+02  1.601E+00  5.000E+00  3.750E+03 -1.577E+01
   1    5    8     1     7    9.4892E+05 -2.7979E+04   9.7690E+05  0.000E+00  0.000E+00  0.000E+00  1.19785E+02  1.630E+00  5.000E+00  5.000E+03 -1.119E+01
   1    6    8     1     8    9.7690E+05 -1.8359E+04   9.9526E+05  0.000E+00  0.000E+00  0.000E+00  1.18705E+02  1.653E+00  5.000E+00  5.000E+03 -7.344E+00
   1   12    9     2     1    1.2007E+06 -1.8920E+04   1.2197E+06  0.000E+00  0.000E+00  0.000E+00  1.16483E+02  2.043E+00  5.000E+00  5.000E+03 -7.568E+00
   1   13    9     2     2    1.2197E+06 -2.8522E+04   1.2482E+06  0.000E+00  0.000E+00  0.000E+00  1.15686E+02  2.067E+00  5.000E+00  5.000E+03 -1.141E+01
   1   14   10     2     3    1.2482E+06 -1.5598E+04   1.2638E+06  0.000E+00  0.000E+00  0.000E+00  1.15069E+02  2.089E+00  5.000E+00  2.795E+03 -1.116E+01
   1   14   10     2     4    1.2638E+06 -1.6835E+04   1.2806E+06  0.000E+00  0.000E+00  0.000E+00  1.14626E+02  2.106E+00  5.000E+00  2.795E+03 -1.205E+01
   1   15   10     2     5    1.2806E+06 -2.8184E+04   1.3088E+06  0.000E+00  0.000E+00  0.000E+00  1.14009E+02  2.128E+00  5.000E+00  5.000E+03 -1.127E+01
   1   16   10     2     6    1.3088E+06 -1.9433E+04   1.3282E+06  0.000E+00  0.000E+00  0.000E+00  1.13212E+02  2.151E+00  5.000E+00  5.000E+03 -7.773E+00
   1   22   10     3     1    1.5489E+06 -2.1536E+04   1.5705E+06  0.000E+00  0.000E+00  0.000E+00  1.11236E+02  2.280E+00  5.000E+00  5.000E+03 -8.614E+00
   1   23   10     3     2    1.5705E+06 -3.1805E+04   1.6023E+06  0.000E+00  0.000E+00  0.000E+00  1.10431E+02  2.303E+00  5.000E+00  3.750E+03 -1.696E+01
   1   23   11     3     3    1.6023E+06 -1.9560E+04   1.6218E+06  0.000E+00  0.000E+00  0.000E+00  1.09863E+02  2.326E+00  5.000E+00  2.500E+03 -1.565E+01
   1   23   12     3     4    1.6218E+06 -3.9953E+04   1.6618E+06  0.000E+00  0.000E+00  0.000E+00  1.09179E+02  2.351E+00  5.000E+00  5.000E+03 -1.598E+01
   1   23   13     3     5    1.6618E+06 -4.3938E+04   1.7057E+06  0.000E+00  0.000E+00  0.000E+00  1.08269E+02  2.387E+00  5.000E+00  5.000E+03 -1.758E+01
   1   23   14     3     6    1.7057E+06 -4.8862E+04   1.7546E+06  0.000E+00  0.000E+00  0.000E+00  1.07362E+02  2.426E+00  5.000E+00  5.000E+03 -1.954E+01
   1   23   15     3     7    1.7546E+06 -5.8266E+04   1.8128E+06  0.000E+00  0.000E+00  0.000E+00  1.06461E+02  2.471E+00  5.000E+00  5.000E+03 -2.331E+01
   1   23   16     3     8    1.8128E+06 -8.9007E+04   1.9018E+06  0.000E+00  0.000E+00  0.000E+00  1.05576E+02  2.532E+00  5.000E+00  5.000E+03 -3.560E+01





     0  LAKE CELLS ARE DRY.

 PERIOD     1     TIME STEP    64     TIME STEP LENGTH  5.9999E+00
 PERIOD TIME  3.2956E+02     TOTAL SIMULATION TIME  3.2956E+02


                 HYDROLOGIC BUDGET SUMMARIES FOR SIMULATED LAKES
     (ALL FLUID FLUXES ARE VOLUMES ADDED TO THE LAKE DURING PRESENT TIME STEP)
     -------------------------------------------------------------------------
 LAKE    STAGE         VOLUME     VOL.CHANGE      PRECIP     EVAPORATION        RUNOFF
   1   116.8837     8.4272E+07    3.5264E+04    4.3499E+05    3.8624E+05    0.0000E+00
   2   111.6993     5.1869E+07    5.6536E+04    4.3499E+05    3.8624E+05    0.0000E+00

            GROUND WATER            SURFACE WATER        WATER
 LAKE    INFLOW     OUTFLOW      INFLOW     OUTFLOW       USE
   1  1.2194E+06  0.0000E+00  5.9714E+06  7.2043E+06  0.0000E+00
   2  1.3318E+06  0.0000E+00  7.9692E+06  9.2933E+06  0.0000E+00

      CONNECTED LAKE   TIME-STEP         STAGE-CHANGE          PERCENT
 LAKE    INFLUX      SURFACE AREA   TIME STEP  CUMULATIVE    DISCREPANCY
   1   0.0000E+00     6.2500E+06   5.6425E-03 -1.3116E+01       0.000
   2   0.0000E+00     6.2500E+06   9.0461E-03 -1.8301E+01       0.000
 --------------------------------------------------------------------------------



            CUMULATIVE HYDROLOGIC BUDGET SUMMARIES FOR SIMULATED LAKES
     (ALL FLUID FLUXES ARE SUMS OF VOLUMES ADDED TO THE LAKE SINCE INITIAL TIME)
     ---------------------------------------------------------------------------
 LAKE       PRECIP       EVAP       RUNOFF
   1     2.3893E+07  2.1215E+07  0.0000E+00
   2     2.3893E+07  2.1215E+07  0.0000E+00

            GROUND WATER            SURFACE WATER
 LAKE    INFLOW     OUTFLOW      INFLOW     OUTFLOW
   1  3.4632E+07  1.5644E+06  2.8301E+08  4.0073E+08
   2  4.6575E+07  1.4259E+06  4.2739E+08  5.8960E+08

         WATER    CONNECTED LAKE   CHANGE       PERCENT
 LAKE     USE         INFLUX       IN VOL.    DISCREPANCY
   1   0.0000E+00   0.0000E+00  -8.1976E+07      0.000
   2   0.0000E+00   0.0000E+00  -1.1438E+08      0.000
 --------------------------------------------------------------------------------

 
 SOLVING FOR HEAD 
     6 ITERATIONS FOR TIME STEP  65 IN STRESS PERIOD    1

 HEAD/DRAWDOWN PRINTOUT FLAG = 0     TOTAL BUDGET PRINTOUT FLAG = 0
 CELL-BY-CELL FLOW TERM FLAG = 1

 OUTPUT FLAGS FOR ALL LAYERS ARE THE SAME:
   HEAD    DRAWDOWN  HEAD  DRAWDOWN
 PRINTOUT  PRINTOUT  SAVE    SAVE
 ----------------------------------
     0         0       0       0



 STREAM LISTING     PERIOD      1   STEP       65

 LAYER ROW COL. STREAM  RCH.  FLOW INTO     FLOW TO   FLOW OUT OF   OVRLND.     DIRECT     STREAM       STREAM     STREAM     STREAM   STREAMBED  STREAMBED
                SEG.NO.  NO.  STRM. RCH.    AQUIFER    STRM. RCH.    RUNOFF     PRECIP       ET          HEAD       DEPTH      WIDTH   CONDCTNC.   GRADIENT

   1    2    5     1     1    6.9120E+05 -7.8575E+04   7.6978E+05  0.000E+00  0.000E+00  0.000E+00  1.25329E+02  1.381E+00  5.000E+00  5.000E+03 -3.143E+01
   1    3    5     1     2    7.6978E+05 -5.2044E+04   8.2182E+05  0.000E+00  0.000E+00  0.000E+00  1.24299E+02  1.454E+00  5.000E+00  5.000E+03 -2.082E+01
   1    4    5     1     3    8.2182E+05 -4.4405E+04   8.6622E+05  0.000E+00  0.000E+00  0.000E+00  1.23248E+02  1.506E+00  5.000E+00  5.000E+03 -1.776E+01
   1    4    6     1     4    8.6622E+05 -3.6339E+04   9.0256E+05  0.000E+00  0.000E+00  0.000E+00  1.22187E+02  1.549E+00  5.000E+00  5.000E+03 -1.454E+01
   1    4    7     1     5    9.0256E+05 -1.8020E+04   9.2058E+05  0.000E+00  0.000E+00  0.000E+00  1.21388E+02  1.577E+00  5.000E+00  2.500E+03 -1.442E+01
   1    4    8     1     6    9.2058E+05 -2.9800E+04   9.5038E+05  0.000E+00  0.000E+00  0.000E+00  1.20723E+02  1.602E+00  5.000E+00  3.750E+03 -1.589E+01
   1    5    8     1     7    9.5038E+05 -2.8332E+04   9.7872E+05  0.000E+00  0.000E+00  0.000E+00  1.19787E+02  1.632E+00  5.000E+00  5.000E+03 -1.133E+01
   1    6    8     1     8    9.7872E+05 -1.8619E+04   9.9734E+05  0.000E+00  0.000E+00  0.000E+00  1.18707E+02  1.655E+00  5.000E+00  5.000E+03 -7.448E+00
   1   12    9     2     1    1.2062E+06 -1.9138E+04   1.2253E+06  0.000E+00  0.000E+00  0.000E+00  1.16489E+02  2.049E+00  5.000E+00  5.000E+03 -7.655E+00
   1   13    9     2     2    1.2253E+06 -2.8884E+04   1.2542E+06  0.000E+00  0.000E+00  0.000E+00  1.15692E+02  2.073E+00  5.000E+00  5.000E+03 -1.155E+01
   1   14   10     2     3    1.2542E+06 -1.5794E+04   1.2700E+06  0.000E+00  0.000E+00  0.000E+00  1.15075E+02  2.095E+00  5.000E+00  2.795E+03 -1.130E+01
   1   14   10     2     4    1.2700E+06 -1.7030E+04   1.2870E+06  0.000E+00  0.000E+00  0.000E+00  1.14632E+02  2.112E+00  5.000E+00  2.795E+03 -1.219E+01
   1   15   10     2     5    1.2870E+06 -2.8505E+04   1.3155E+06  0.000E+00  0.000E+00  0.000E+00  1.14015E+02  2.134E+00  5.000E+00  5.000E+03 -1.140E+01
   1   16   10     2     6    1.3155E+06 -1.9635E+04   1.3351E+06  0.000E+00  0.000E+00  0.000E+00  1.13218E+02  2.158E+00  5.000E+00  5.000E+03 -7.854E+00
   1   22   10     3     1    1.5591E+06 -2.1736E+04   1.5808E+06  0.000E+00  0.000E+00  0.000E+00  1.11245E+02  2.289E+00  5.000E+00  5.000E+03 -8.694E+00
   1   23   10     3     2    1.5808E+06 -3.2124E+04   1.6129E+06  0.000E+00  0.000E+00  0.000E+00  1.10441E+02  2.312E+00  5.000E+00  3.750E+03 -1.713E+01
   1   23   11     3     3    1.6129E+06 -1.9723E+04   1.6326E+06  0.000E+00  0.000E+00  0.000E+00  1.09872E+02  2.335E+00  5.000E+00  2.500E+03 -1.578E+01
   1   23   12     3     4    1.6326E+06 -4.0235E+04   1.6729E+06  0.000E+00  0.000E+00  0.000E+00  1.09188E+02  2.361E+00  5.000E+00  5.000E+03 -1.609E+01
   1   23   13     3     5    1.6729E+06 -4.4219E+04   1.7171E+06  0.000E+00  0.000E+00  0.000E+00  1.08278E+02  2.397E+00  5.000E+00  5.000E+03 -1.769E+01
   1   23   14     3     6    1.7171E+06 -4.9106E+04   1.7662E+06  0.000E+00  0.000E+00  0.000E+00  1.07372E+02  2.436E+00  5.000E+00  5.000E+03 -1.964E+01
   1   23   15     3     7    1.7662E+06 -5.8427E+04   1.8246E+06  0.000E+00  0.000E+00  0.000E+00  1.06471E+02  2.481E+00  5.000E+00  5.000E+03 -2.337E+01
   1   23   16     3     8    1.8246E+06 -8.9058E+04   1.9137E+06  0.000E+00  0.000E+00  0.000E+00  1.05586E+02  2.542E+00  5.000E+00  5.000E+03 -3.562E+01





     0  LAKE CELLS ARE DRY.

 PERIOD     1     TIME STEP    65     TIME STEP LENGTH  6.0299E+00
 PERIOD TIME  3.3559E+02     TOTAL SIMULATION TIME  3.3559E+02


                 HYDROLOGIC BUDGET SUMMARIES FOR SIMULATED LAKES
     (ALL FLUID FLUXES ARE VOLUMES ADDED TO THE LAKE DURING PRESENT TIME STEP)
     -------------------------------------------------------------------------
 LAKE    STAGE         VOLUME     VOL.CHANGE      PRECIP     EVAPORATION        RUNOFF
   1   116.8892     8.4307E+07    3.4496E+04    4.3717E+05    3.8817E+05    0.0000E+00
   2   111.7082     5.1925E+07    5.5684E+04    4.3717E+05    3.8817E+05    0.0000E+00

            GROUND WATER            SURFACE WATER        WATER
 LAKE    INFLOW     OUTFLOW      INFLOW     OUTFLOW       USE
   1  1.2447E+06  0.0000E+00  6.0138E+06  7.2730E+06  0.0000E+00
   2  1.3569E+06  0.0000E+00  8.0507E+06  9.4009E+06  0.0000E+00

      CONNECTED LAKE   TIME-STEP         STAGE-CHANGE          PERCENT
 LAKE    INFLUX      SURFACE AREA   TIME STEP  CUMULATIVE    DISCREPANCY
   1   0.0000E+00     6.2500E+06   5.5198E-03 -1.3111E+01       0.000
   2   0.0000E+00     6.2500E+06   8.9093E-03 -1.8292E+01       0.000
 --------------------------------------------------------------------------------



            CUMULATIVE HYDROLOGIC BUDGET SUMMARIES FOR SIMULATED LAKES
     (ALL FLUID FLUXES ARE SUMS OF VOLUMES ADDED TO THE LAKE SINCE INITIAL TIME)
     ---------------------------------------------------------------------------
 LAKE       PRECIP       EVAP       RUNOFF
   1     2.4330E+07  2.1604E+07  0.0000E+00
   2     2.4330E+07  2.1604E+07  0.0000E+00

            GROUND WATER            SURFACE WATER
 LAKE    INFLOW     OUTFLOW      INFLOW     OUTFLOW
   1  3.5877E+07  1.5644E+06  2.8902E+08  4.0800E+08
   2  4.7932E+07  1.4259E+06  4.3544E+08  5.9900E+08

         WATER    CONNECTED LAKE   CHANGE       PERCENT
 LAKE     USE         INFLUX       IN VOL.    DISCREPANCY
   1   0.0000E+00   0.0000E+00  -8.1942E+07      0.000
   2   0.0000E+00   0.0000E+00  -1.1432E+08      0.000
 --------------------------------------------------------------------------------

 
 SOLVING FOR HEAD 
     6 ITERATIONS FOR TIME STEP  66 IN STRESS PERIOD    1

 HEAD/DRAWDOWN PRINTOUT FLAG = 0     TOTAL BUDGET PRINTOUT FLAG = 0
 CELL-BY-CELL FLOW TERM FLAG = 1

 OUTPUT FLAGS FOR ALL LAYERS ARE THE SAME:
   HEAD    DRAWDOWN  HEAD  DRAWDOWN
 PRINTOUT  PRINTOUT  SAVE    SAVE
 ----------------------------------
     0         0       0       0



 STREAM LISTING     PERIOD      1   STEP       66

 LAYER ROW COL. STREAM  RCH.  FLOW INTO     FLOW TO   FLOW OUT OF   OVRLND.     DIRECT     STREAM       STREAM     STREAM     STREAM   STREAMBED  STREAMBED
                SEG.NO.  NO.  STRM. RCH.    AQUIFER    STRM. RCH.    RUNOFF     PRECIP       ET          HEAD       DEPTH      WIDTH   CONDCTNC.   GRADIENT

   1    2    5     1     1    6.9120E+05 -7.8653E+04   7.6985E+05  0.000E+00  0.000E+00  0.000E+00  1.25329E+02  1.381E+00  5.000E+00  5.000E+03 -3.146E+01
   1    3    5     1     2    7.6985E+05 -5.2265E+04   8.2212E+05  0.000E+00  0.000E+00  0.000E+00  1.24299E+02  1.454E+00  5.000E+00  5.000E+03 -2.091E+01
   1    4    5     1     3    8.2212E+05 -4.4833E+04   8.6695E+05  0.000E+00  0.000E+00  0.000E+00  1.23248E+02  1.507E+00  5.000E+00  5.000E+03 -1.793E+01
   1    4    6     1     4    8.6695E+05 -3.6652E+04   9.0360E+05  0.000E+00  0.000E+00  0.000E+00  1.22188E+02  1.550E+00  5.000E+00  5.000E+03 -1.466E+01
   1    4    7     1     5    9.0360E+05 -1.8160E+04   9.2176E+05  0.000E+00  0.000E+00  0.000E+00  1.21389E+02  1.579E+00  5.000E+00  2.500E+03 -1.453E+01
   1    4    8     1     6    9.2176E+05 -3.0029E+04   9.5179E+05  0.000E+00  0.000E+00  0.000E+00  1.20724E+02  1.603E+00  5.000E+00  3.750E+03 -1.602E+01
   1    5    8     1     7    9.5179E+05 -2.8676E+04   9.8047E+05  0.000E+00  0.000E+00  0.000E+00  1.19789E+02  1.633E+00  5.000E+00  5.000E+03 -1.147E+01
   1    6    8     1     8    9.8047E+05 -1.8874E+04   9.9934E+05  0.000E+00  0.000E+00  0.000E+00  1.18709E+02  1.657E+00  5.000E+00  5.000E+03 -7.550E+00
   1   12    9     2     1    1.2114E+06 -1.9356E+04   1.2308E+06  0.000E+00  0.000E+00  0.000E+00  1.16494E+02  2.054E+00  5.000E+00  5.000E+03 -7.742E+00
   1   13    9     2     2    1.2308E+06 -2.9246E+04   1.2600E+06  0.000E+00  0.000E+00  0.000E+00  1.15698E+02  2.079E+00  5.000E+00  5.000E+03 -1.170E+01
   1   14   10     2     3    1.2600E+06 -1.5988E+04   1.2760E+06  0.000E+00  0.000E+00  0.000E+00  1.15081E+02  2.101E+00  5.000E+00  2.795E+03 -1.144E+01
   1   14   10     2     4    1.2760E+06 -1.7224E+04   1.2933E+06  0.000E+00  0.000E+00  0.000E+00  1.14638E+02  2.118E+00  5.000E+00  2.795E+03 -1.232E+01
   1   15   10     2     5    1.2933E+06 -2.8825E+04   1.3221E+06  0.000E+00  0.000E+00  0.000E+00  1.14022E+02  2.141E+00  5.000E+00  5.000E+03 -1.153E+01
   1   16   10     2     6    1.3221E+06 -1.9836E+04   1.3419E+06  0.000E+00  0.000E+00  0.000E+00  1.13225E+02  2.164E+00  5.000E+00  5.000E+03 -7.935E+00
   1   22   10     3     1    1.5690E+06 -2.1934E+04   1.5910E+06  0.000E+00  0.000E+00  0.000E+00  1.11253E+02  2.298E+00  5.000E+00  5.000E+03 -8.774E+00
   1   23   10     3     2    1.5910E+06 -3.2436E+04   1.6234E+06  0.000E+00  0.000E+00  0.000E+00  1.10450E+02  2.321E+00  5.000E+00  3.750E+03 -1.730E+01
   1   23   11     3     3    1.6234E+06 -1.9883E+04   1.6433E+06  0.000E+00  0.000E+00  0.000E+00  1.09881E+02  2.344E+00  5.000E+00  2.500E+03 -1.591E+01
   1   23   12     3     4    1.6433E+06 -4.0510E+04   1.6838E+06  0.000E+00  0.000E+00  0.000E+00  1.09198E+02  2.370E+00  5.000E+00  5.000E+03 -1.620E+01
   1   23   13     3     5    1.6838E+06 -4.4490E+04   1.7283E+06  0.000E+00  0.000E+00  0.000E+00  1.08288E+02  2.406E+00  5.000E+00  5.000E+03 -1.780E+01
   1   23   14     3     6    1.7283E+06 -4.9339E+04   1.7776E+06  0.000E+00  0.000E+00  0.000E+00  1.07382E+02  2.446E+00  5.000E+00  5.000E+03 -1.974E+01
   1   23   15     3     7    1.7776E+06 -5.8581E+04   1.8362E+06  0.000E+00  0.000E+00  0.000E+00  1.06481E+02  2.490E+00  5.000E+00  5.000E+03 -2.343E+01
   1   23   16     3     8    1.8362E+06 -8.9106E+04   1.9253E+06  0.000E+00  0.000E+00  0.000E+00  1.05595E+02  2.551E+00  5.000E+00  5.000E+03 -3.564E+01





     0  LAKE CELLS ARE DRY.

 PERIOD     1     TIME STEP    66     TIME STEP LENGTH  6.0600E+00
 PERIOD TIME  3.4165E+02     TOTAL SIMULATION TIME  3.4165E+02


                 HYDROLOGIC BUDGET SUMMARIES FOR SIMULATED LAKES
     (ALL FLUID FLUXES ARE VOLUMES ADDED TO THE LAKE DURING PRESENT TIME STEP)
     -------------------------------------------------------------------------
 LAKE    STAGE         VOLUME     VOL.CHANGE      PRECIP     EVAPORATION        RUNOFF
   1   116.8946     8.4341E+07    3.3680E+04    4.3935E+05    3.9011E+05    0.0000E+00
   2   111.7169     5.1980E+07    5.4792E+04    4.3935E+05    3.9011E+05    0.0000E+00

            GROUND WATER            SURFACE WATER        WATER
 LAKE    INFLOW     OUTFLOW      INFLOW     OUTFLOW       USE
   1  1.2698E+06  0.0000E+00  6.0560E+06  7.3414E+06  0.0000E+00
   2  1.3819E+06  0.0000E+00  8.1321E+06  9.5084E+06  0.0000E+00

      CONNECTED LAKE   TIME-STEP         STAGE-CHANGE          PERCENT
 LAKE    INFLUX      SURFACE AREA   TIME STEP  CUMULATIVE    DISCREPANCY
   1   0.0000E+00     6.2500E+06   5.3884E-03 -1.3105E+01       0.000
   2   0.0000E+00     6.2500E+06   8.7672E-03 -1.8283E+01       0.000
 --------------------------------------------------------------------------------



            CUMULATIVE HYDROLOGIC BUDGET SUMMARIES FOR SIMULATED LAKES
     (ALL FLUID FLUXES ARE SUMS OF VOLUMES ADDED TO THE LAKE SINCE INITIAL TIME)
     ---------------------------------------------------------------------------
 LAKE       PRECIP       EVAP       RUNOFF
   1     2.4770E+07  2.1994E+07  0.0000E+00
   2     2.4770E+07  2.1994E+07  0.0000E+00

            GROUND WATER            SURFACE WATER
 LAKE    INFLOW     OUTFLOW      INFLOW     OUTFLOW
   1  3.7147E+07  1.5644E+06  2.9508E+08  4.1534E+08
   2  4.9314E+07  1.4259E+06  4.4358E+08  6.0851E+08

         WATER    CONNECTED LAKE   CHANGE       PERCENT
 LAKE     USE         INFLUX       IN VOL.    DISCREPANCY
   1   0.0000E+00   0.0000E+00  -8.1908E+07      0.000
   2   0.0000E+00   0.0000E+00  -1.1427E+08      0.000
 --------------------------------------------------------------------------------

 
 SOLVING FOR HEAD 
     6 ITERATIONS FOR TIME STEP  67 IN STRESS PERIOD    1

 HEAD/DRAWDOWN PRINTOUT FLAG = 0     TOTAL BUDGET PRINTOUT FLAG = 0
 CELL-BY-CELL FLOW TERM FLAG = 1

 OUTPUT FLAGS FOR ALL LAYERS ARE THE SAME:
   HEAD    DRAWDOWN  HEAD  DRAWDOWN
 PRINTOUT  PRINTOUT  SAVE    SAVE
 ----------------------------------
     0         0       0       0



 STREAM LISTING     PERIOD      1   STEP       67

 LAYER ROW COL. STREAM  RCH.  FLOW INTO     FLOW TO   FLOW OUT OF   OVRLND.     DIRECT     STREAM       STREAM     STREAM     STREAM   STREAMBED  STREAMBED
                SEG.NO.  NO.  STRM. RCH.    AQUIFER    STRM. RCH.    RUNOFF     PRECIP       ET          HEAD       DEPTH      WIDTH   CONDCTNC.   GRADIENT

   1    2    5     1     1    6.9120E+05 -7.8727E+04   7.6993E+05  0.000E+00  0.000E+00  0.000E+00  1.25329E+02  1.381E+00  5.000E+00  5.000E+03 -3.149E+01
   1    3    5     1     2    7.6993E+05 -5.2475E+04   8.2240E+05  0.000E+00  0.000E+00  0.000E+00  1.24299E+02  1.454E+00  5.000E+00  5.000E+03 -2.099E+01
   1    4    5     1     3    8.2240E+05 -4.5244E+04   8.6765E+05  0.000E+00  0.000E+00  0.000E+00  1.23249E+02  1.507E+00  5.000E+00  5.000E+03 -1.810E+01
   1    4    6     1     4    8.6765E+05 -3.6954E+04   9.0460E+05  0.000E+00  0.000E+00  0.000E+00  1.22189E+02  1.551E+00  5.000E+00  5.000E+03 -1.478E+01
   1    4    7     1     5    9.0460E+05 -1.8294E+04   9.2289E+05  0.000E+00  0.000E+00  0.000E+00  1.21390E+02  1.580E+00  5.000E+00  2.500E+03 -1.464E+01
   1    4    8     1     6    9.2289E+05 -3.0248E+04   9.5314E+05  0.000E+00  0.000E+00  0.000E+00  1.20725E+02  1.605E+00  5.000E+00  3.750E+03 -1.613E+01
   1    5    8     1     7    9.5314E+05 -2.9011E+04   9.8215E+05  0.000E+00  0.000E+00  0.000E+00  1.19790E+02  1.635E+00  5.000E+00  5.000E+03 -1.160E+01
   1    6    8     1     8    9.8215E+05 -1.9125E+04   1.0013E+06  0.000E+00  0.000E+00  0.000E+00  1.18711E+02  1.659E+00  5.000E+00  5.000E+03 -7.650E+00
   1   12    9     2     1    1.2166E+06 -1.9573E+04   1.2362E+06  0.000E+00  0.000E+00  0.000E+00  1.16499E+02  2.060E+00  5.000E+00  5.000E+03 -7.829E+00
   1   13    9     2     2    1.2362E+06 -2.9606E+04   1.2658E+06  0.000E+00  0.000E+00  0.000E+00  1.15703E+02  2.084E+00  5.000E+00  5.000E+03 -1.184E+01
   1   14   10     2     3    1.2658E+06 -1.6181E+04   1.2820E+06  0.000E+00  0.000E+00  0.000E+00  1.15087E+02  2.107E+00  5.000E+00  2.795E+03 -1.158E+01
   1   14   10     2     4    1.2820E+06 -1.7417E+04   1.2994E+06  0.000E+00  0.000E+00  0.000E+00  1.14644E+02  2.124E+00  5.000E+00  2.795E+03 -1.246E+01
   1   15   10     2     5    1.2994E+06 -2.9144E+04   1.3285E+06  0.000E+00  0.000E+00  0.000E+00  1.14028E+02  2.147E+00  5.000E+00  5.000E+03 -1.166E+01
   1   16   10     2     6    1.3285E+06 -2.0037E+04   1.3486E+06  0.000E+00  0.000E+00  0.000E+00  1.13231E+02  2.171E+00  5.000E+00  5.000E+03 -8.015E+00
   1   22   10     3     1    1.5789E+06 -2.2131E+04   1.6010E+06  0.000E+00  0.000E+00  0.000E+00  1.11262E+02  2.306E+00  5.000E+00  5.000E+03 -8.852E+00
   1   23   10     3     2    1.6010E+06 -3.2741E+04   1.6337E+06  0.000E+00  0.000E+00  0.000E+00  1.10458E+02  2.330E+00  5.000E+00  3.750E+03 -1.746E+01
   1   23   11     3     3    1.6337E+06 -2.0038E+04   1.6538E+06  0.000E+00  0.000E+00  0.000E+00  1.09890E+02  2.353E+00  5.000E+00  2.500E+03 -1.603E+01
   1   23   12     3     4    1.6538E+06 -4.0777E+04   1.6946E+06  0.000E+00  0.000E+00  0.000E+00  1.09207E+02  2.379E+00  5.000E+00  5.000E+03 -1.631E+01
   1   23   13     3     5    1.6946E+06 -4.4752E+04   1.7393E+06  0.000E+00  0.000E+00  0.000E+00  1.08297E+02  2.415E+00  5.000E+00  5.000E+03 -1.790E+01
   1   23   14     3     6    1.7393E+06 -4.9564E+04   1.7889E+06  0.000E+00  0.000E+00  0.000E+00  1.07391E+02  2.455E+00  5.000E+00  5.000E+03 -1.983E+01
   1   23   15     3     7    1.7889E+06 -5.8729E+04   1.8476E+06  0.000E+00  0.000E+00  0.000E+00  1.06490E+02  2.500E+00  5.000E+00  5.000E+03 -2.349E+01
   1   23   16     3     8    1.8476E+06 -8.9152E+04   1.9368E+06  0.000E+00  0.000E+00  0.000E+00  1.05605E+02  2.560E+00  5.000E+00  5.000E+03 -3.566E+01





     0  LAKE CELLS ARE DRY.

 PERIOD     1     TIME STEP    67     TIME STEP LENGTH  6.0903E+00
 PERIOD TIME  3.4774E+02     TOTAL SIMULATION TIME  3.4774E+02


                 HYDROLOGIC BUDGET SUMMARIES FOR SIMULATED LAKES
     (ALL FLUID FLUXES ARE VOLUMES ADDED TO THE LAKE DURING PRESENT TIME STEP)
     -------------------------------------------------------------------------
 LAKE    STAGE         VOLUME     VOL.CHANGE      PRECIP     EVAPORATION        RUNOFF
   1   116.8999     8.4373E+07    3.2920E+04    4.4155E+05    3.9206E+05    0.0000E+00
   2   111.7256     5.2034E+07    5.3972E+04    4.4155E+05    3.9206E+05    0.0000E+00

            GROUND WATER            SURFACE WATER        WATER
 LAKE    INFLOW     OUTFLOW      INFLOW     OUTFLOW       USE
   1  1.2949E+06  0.0000E+00  6.0981E+06  7.4095E+06  0.0000E+00
   2  1.4071E+06  0.0000E+00  8.2132E+06  9.6158E+06  0.0000E+00

      CONNECTED LAKE   TIME-STEP         STAGE-CHANGE          PERCENT
 LAKE    INFLUX      SURFACE AREA   TIME STEP  CUMULATIVE    DISCREPANCY
   1   0.0000E+00     6.2500E+06   5.2664E-03 -1.3100E+01       0.000
   2   0.0000E+00     6.2500E+06   8.6357E-03 -1.8274E+01       0.000
 --------------------------------------------------------------------------------



            CUMULATIVE HYDROLOGIC BUDGET SUMMARIES FOR SIMULATED LAKES
     (ALL FLUID FLUXES ARE SUMS OF VOLUMES ADDED TO THE LAKE SINCE INITIAL TIME)
     ---------------------------------------------------------------------------
 LAKE       PRECIP       EVAP       RUNOFF
   1     2.5211E+07  2.2386E+07  0.0000E+00
   2     2.5211E+07  2.2386E+07  0.0000E+00

            GROUND WATER            SURFACE WATER
 LAKE    INFLOW     OUTFLOW      INFLOW     OUTFLOW
   1  3.8442E+07  1.5644E+06  3.0117E+08  4.2275E+08
   2  5.0721E+07  1.4259E+06  4.5179E+08  6.1812E+08

         WATER    CONNECTED LAKE   CHANGE       PERCENT
 LAKE     USE         INFLUX       IN VOL.    DISCREPANCY
   1   0.0000E+00   0.0000E+00  -8.1875E+07      0.000
   2   0.0000E+00   0.0000E+00  -1.1421E+08      0.000
 --------------------------------------------------------------------------------

 
 SOLVING FOR HEAD 
     6 ITERATIONS FOR TIME STEP  68 IN STRESS PERIOD    1

 HEAD/DRAWDOWN PRINTOUT FLAG = 0     TOTAL BUDGET PRINTOUT FLAG = 0
 CELL-BY-CELL FLOW TERM FLAG = 1

 OUTPUT FLAGS FOR ALL LAYERS ARE THE SAME:
   HEAD    DRAWDOWN  HEAD  DRAWDOWN
 PRINTOUT  PRINTOUT  SAVE    SAVE
 ----------------------------------
     0         0       0       0



 STREAM LISTING     PERIOD      1   STEP       68

 LAYER ROW COL. STREAM  RCH.  FLOW INTO     FLOW TO   FLOW OUT OF   OVRLND.     DIRECT     STREAM       STREAM     STREAM     STREAM   STREAMBED  STREAMBED
                SEG.NO.  NO.  STRM. RCH.    AQUIFER    STRM. RCH.    RUNOFF     PRECIP       ET          HEAD       DEPTH      WIDTH   CONDCTNC.   GRADIENT

   1    2    5     1     1    6.9120E+05 -7.8796E+04   7.7000E+05  0.000E+00  0.000E+00  0.000E+00  1.25329E+02  1.381E+00  5.000E+00  5.000E+03 -3.152E+01
   1    3    5     1     2    7.7000E+05 -5.2674E+04   8.2267E+05  0.000E+00  0.000E+00  0.000E+00  1.24299E+02  1.454E+00  5.000E+00  5.000E+03 -2.107E+01
   1    4    5     1     3    8.2267E+05 -4.5638E+04   8.6831E+05  0.000E+00  0.000E+00  0.000E+00  1.23249E+02  1.508E+00  5.000E+00  5.000E+03 -1.826E+01
   1    4    6     1     4    8.6831E+05 -3.7246E+04   9.0555E+05  0.000E+00  0.000E+00  0.000E+00  1.22190E+02  1.552E+00  5.000E+00  5.000E+03 -1.490E+01
   1    4    7     1     5    9.0555E+05 -1.8424E+04   9.2398E+05  0.000E+00  0.000E+00  0.000E+00  1.21391E+02  1.581E+00  5.000E+00  2.500E+03 -1.474E+01
   1    4    8     1     6    9.2398E+05 -3.0459E+04   9.5444E+05  0.000E+00  0.000E+00  0.000E+00  1.20727E+02  1.606E+00  5.000E+00  3.750E+03 -1.624E+01
   1    5    8     1     7    9.5444E+05 -2.9336E+04   9.8377E+05  0.000E+00  0.000E+00  0.000E+00  1.19792E+02  1.636E+00  5.000E+00  5.000E+03 -1.173E+01
   1    6    8     1     8    9.8377E+05 -1.9370E+04   1.0031E+06  0.000E+00  0.000E+00  0.000E+00  1.18713E+02  1.661E+00  5.000E+00  5.000E+03 -7.748E+00
   1   12    9     2     1    1.2217E+06 -1.9789E+04   1.2415E+06  0.000E+00  0.000E+00  0.000E+00  1.16505E+02  2.065E+00  5.000E+00  5.000E+03 -7.916E+00
   1   13    9     2     2    1.2415E+06 -2.9965E+04   1.2714E+06  0.000E+00  0.000E+00  0.000E+00  1.15709E+02  2.090E+00  5.000E+00  5.000E+03 -1.199E+01
   1   14   10     2     3    1.2714E+06 -1.6374E+04   1.2878E+06  0.000E+00  0.000E+00  0.000E+00  1.15092E+02  2.113E+00  5.000E+00  2.795E+03 -1.172E+01
   1   14   10     2     4    1.2878E+06 -1.7609E+04   1.3054E+06  0.000E+00  0.000E+00  0.000E+00  1.14650E+02  2.130E+00  5.000E+00  2.795E+03 -1.260E+01
   1   15   10     2     5    1.3054E+06 -2.9460E+04   1.3349E+06  0.000E+00  0.000E+00  0.000E+00  1.14034E+02  2.153E+00  5.000E+00  5.000E+03 -1.178E+01
   1   16   10     2     6    1.3349E+06 -2.0235E+04   1.3551E+06  0.000E+00  0.000E+00  0.000E+00  1.13237E+02  2.177E+00  5.000E+00  5.000E+03 -8.094E+00
   1   22   10     3     1    1.5886E+06 -2.2324E+04   1.6109E+06  0.000E+00  0.000E+00  0.000E+00  1.11271E+02  2.315E+00  5.000E+00  5.000E+03 -8.930E+00
   1   23   10     3     2    1.6109E+06 -3.3038E+04   1.6440E+06  0.000E+00  0.000E+00  0.000E+00  1.10467E+02  2.339E+00  5.000E+00  3.750E+03 -1.762E+01
   1   23   11     3     3    1.6440E+06 -2.0190E+04   1.6642E+06  0.000E+00  0.000E+00  0.000E+00  1.09899E+02  2.362E+00  5.000E+00  2.500E+03 -1.615E+01
   1   23   12     3     4    1.6642E+06 -4.1038E+04   1.7052E+06  0.000E+00  0.000E+00  0.000E+00  1.09216E+02  2.388E+00  5.000E+00  5.000E+03 -1.642E+01
   1   23   13     3     5    1.7052E+06 -4.5004E+04   1.7502E+06  0.000E+00  0.000E+00  0.000E+00  1.08306E+02  2.424E+00  5.000E+00  5.000E+03 -1.800E+01
   1   23   14     3     6    1.7502E+06 -4.9780E+04   1.8000E+06  0.000E+00  0.000E+00  0.000E+00  1.07400E+02  2.464E+00  5.000E+00  5.000E+03 -1.991E+01
   1   23   15     3     7    1.8000E+06 -5.8869E+04   1.8588E+06  0.000E+00  0.000E+00  0.000E+00  1.06499E+02  2.509E+00  5.000E+00  5.000E+03 -2.355E+01
   1   23   16     3     8    1.8588E+06 -8.9195E+04   1.9480E+06  0.000E+00  0.000E+00  0.000E+00  1.05614E+02  2.569E+00  5.000E+00  5.000E+03 -3.568E+01





     0  LAKE CELLS ARE DRY.

 PERIOD     1     TIME STEP    68     TIME STEP LENGTH  6.1208E+00
 PERIOD TIME  3.5386E+02     TOTAL SIMULATION TIME  3.5386E+02


                 HYDROLOGIC BUDGET SUMMARIES FOR SIMULATED LAKES
     (ALL FLUID FLUXES ARE VOLUMES ADDED TO THE LAKE DURING PRESENT TIME STEP)
     -------------------------------------------------------------------------
 LAKE    STAGE         VOLUME     VOL.CHANGE      PRECIP     EVAPORATION        RUNOFF
   1   116.9050     8.4405E+07    3.1872E+04    4.4376E+05    3.9402E+05    0.0000E+00
   2   111.7340     5.2087E+07    5.2944E+04    4.4376E+05    3.9402E+05    0.0000E+00

            GROUND WATER            SURFACE WATER        WATER
 LAKE    INFLOW     OUTFLOW      INFLOW     OUTFLOW       USE
   1  1.3199E+06  0.0000E+00  6.1400E+06  7.4777E+06  0.0000E+00
   2  1.4323E+06  0.0000E+00  8.2944E+06  9.7235E+06  0.0000E+00

      CONNECTED LAKE   TIME-STEP         STAGE-CHANGE          PERCENT
 LAKE    INFLUX      SURFACE AREA   TIME STEP  CUMULATIVE    DISCREPANCY
   1   0.0000E+00     6.2500E+06   5.1003E-03 -1.3095E+01       0.000
   2   0.0000E+00     6.2500E+06   8.4711E-03 -1.8266E+01       0.000
 --------------------------------------------------------------------------------



            CUMULATIVE HYDROLOGIC BUDGET SUMMARIES FOR SIMULATED LAKES
     (ALL FLUID FLUXES ARE SUMS OF VOLUMES ADDED TO THE LAKE SINCE INITIAL TIME)
     ---------------------------------------------------------------------------
 LAKE       PRECIP       EVAP       RUNOFF
   1     2.5655E+07  2.2780E+07  0.0000E+00
   2     2.5655E+07  2.2780E+07  0.0000E+00

            GROUND WATER            SURFACE WATER
 LAKE    INFLOW     OUTFLOW      INFLOW     OUTFLOW
   1  3.9761E+07  1.5644E+06  3.0731E+08  4.3023E+08
   2  5.2153E+07  1.4259E+06  4.6008E+08  6.2785E+08

         WATER    CONNECTED LAKE   CHANGE       PERCENT
 LAKE     USE         INFLUX       IN VOL.    DISCREPANCY
   1   0.0000E+00   0.0000E+00  -8.1843E+07      0.000
   2   0.0000E+00   0.0000E+00  -1.1416E+08      0.000
 --------------------------------------------------------------------------------

 
 SOLVING FOR HEAD 
     6 ITERATIONS FOR TIME STEP  69 IN STRESS PERIOD    1

 HEAD/DRAWDOWN PRINTOUT FLAG = 0     TOTAL BUDGET PRINTOUT FLAG = 0
 CELL-BY-CELL FLOW TERM FLAG = 1

 OUTPUT FLAGS FOR ALL LAYERS ARE THE SAME:
   HEAD    DRAWDOWN  HEAD  DRAWDOWN
 PRINTOUT  PRINTOUT  SAVE    SAVE
 ----------------------------------
     0         0       0       0



 STREAM LISTING     PERIOD      1   STEP       69

 LAYER ROW COL. STREAM  RCH.  FLOW INTO     FLOW TO   FLOW OUT OF   OVRLND.     DIRECT     STREAM       STREAM     STREAM     STREAM   STREAMBED  STREAMBED
                SEG.NO.  NO.  STRM. RCH.    AQUIFER    STRM. RCH.    RUNOFF     PRECIP       ET          HEAD       DEPTH      WIDTH   CONDCTNC.   GRADIENT

   1    2    5     1     1    6.9120E+05 -7.8862E+04   7.7006E+05  0.000E+00  0.000E+00  0.000E+00  1.25330E+02  1.381E+00  5.000E+00  5.000E+03 -3.154E+01
   1    3    5     1     2    7.7006E+05 -5.2863E+04   8.2293E+05  0.000E+00  0.000E+00  0.000E+00  1.24299E+02  1.455E+00  5.000E+00  5.000E+03 -2.115E+01
   1    4    5     1     3    8.2293E+05 -4.6016E+04   8.6894E+05  0.000E+00  0.000E+00  0.000E+00  1.23250E+02  1.508E+00  5.000E+00  5.000E+03 -1.841E+01
   1    4    6     1     4    8.6894E+05 -3.7528E+04   9.0647E+05  0.000E+00  0.000E+00  0.000E+00  1.22190E+02  1.552E+00  5.000E+00  5.000E+03 -1.501E+01
   1    4    7     1     5    9.0647E+05 -1.8549E+04   9.2502E+05  0.000E+00  0.000E+00  0.000E+00  1.21392E+02  1.582E+00  5.000E+00  2.500E+03 -1.484E+01
   1    4    8     1     6    9.2502E+05 -3.0661E+04   9.5568E+05  0.000E+00  0.000E+00  0.000E+00  1.20728E+02  1.607E+00  5.000E+00  3.750E+03 -1.635E+01
   1    5    8     1     7    9.5568E+05 -2.9652E+04   9.8533E+05  0.000E+00  0.000E+00  0.000E+00  1.19793E+02  1.638E+00  5.000E+00  5.000E+03 -1.186E+01
   1    6    8     1     8    9.8533E+05 -1.9609E+04   1.0049E+06  0.000E+00  0.000E+00  0.000E+00  1.18714E+02  1.663E+00  5.000E+00  5.000E+03 -7.844E+00
   1   12    9     2     1    1.2266E+06 -2.0004E+04   1.2466E+06  0.000E+00  0.000E+00  0.000E+00  1.16510E+02  2.070E+00  5.000E+00  5.000E+03 -8.001E+00
   1   13    9     2     2    1.2466E+06 -3.0324E+04   1.2770E+06  0.000E+00  0.000E+00  0.000E+00  1.15714E+02  2.095E+00  5.000E+00  5.000E+03 -1.213E+01
   1   14   10     2     3    1.2770E+06 -1.6564E+04   1.2935E+06  0.000E+00  0.000E+00  0.000E+00  1.15098E+02  2.118E+00  5.000E+00  2.795E+03 -1.185E+01
   1   14   10     2     4    1.2935E+06 -1.7799E+04   1.3113E+06  0.000E+00  0.000E+00  0.000E+00  1.14656E+02  2.135E+00  5.000E+00  2.795E+03 -1.274E+01
   1   15   10     2     5    1.3113E+06 -2.9775E+04   1.3411E+06  0.000E+00  0.000E+00  0.000E+00  1.14040E+02  2.159E+00  5.000E+00  5.000E+03 -1.191E+01
   1   16   10     2     6    1.3411E+06 -2.0433E+04   1.3615E+06  0.000E+00  0.000E+00  0.000E+00  1.13243E+02  2.183E+00  5.000E+00  5.000E+03 -8.173E+00
   1   22   10     3     1    1.5982E+06 -2.2516E+04   1.6207E+06  0.000E+00  0.000E+00  0.000E+00  1.11279E+02  2.323E+00  5.000E+00  5.000E+03 -9.006E+00
   1   23   10     3     2    1.6207E+06 -3.3327E+04   1.6540E+06  0.000E+00  0.000E+00  0.000E+00  1.10476E+02  2.347E+00  5.000E+00  3.750E+03 -1.777E+01
   1   23   11     3     3    1.6540E+06 -2.0337E+04   1.6744E+06  0.000E+00  0.000E+00  0.000E+00  1.09907E+02  2.370E+00  5.000E+00  2.500E+03 -1.627E+01
   1   23   12     3     4    1.6744E+06 -4.1291E+04   1.7156E+06  0.000E+00  0.000E+00  0.000E+00  1.09224E+02  2.397E+00  5.000E+00  5.000E+03 -1.652E+01
   1   23   13     3     5    1.7156E+06 -4.5248E+04   1.7609E+06  0.000E+00  0.000E+00  0.000E+00  1.08315E+02  2.433E+00  5.000E+00  5.000E+03 -1.810E+01
   1   23   14     3     6    1.7609E+06 -4.9988E+04   1.8109E+06  0.000E+00  0.000E+00  0.000E+00  1.07409E+02  2.473E+00  5.000E+00  5.000E+03 -2.000E+01
   1   23   15     3     7    1.8109E+06 -5.9004E+04   1.8699E+06  0.000E+00  0.000E+00  0.000E+00  1.06508E+02  2.518E+00  5.000E+00  5.000E+03 -2.360E+01
   1   23   16     3     8    1.8699E+06 -8.9236E+04   1.9591E+06  0.000E+00  0.000E+00  0.000E+00  1.05623E+02  2.578E+00  5.000E+00  5.000E+03 -3.569E+01





     0  LAKE CELLS ARE DRY.

 PERIOD     1     TIME STEP    69     TIME STEP LENGTH  6.1514E+00
 PERIOD TIME  3.6001E+02     TOTAL SIMULATION TIME  3.6001E+02


                 HYDROLOGIC BUDGET SUMMARIES FOR SIMULATED LAKES
     (ALL FLUID FLUXES ARE VOLUMES ADDED TO THE LAKE DURING PRESENT TIME STEP)
     -------------------------------------------------------------------------
 LAKE    STAGE         VOLUME     VOL.CHANGE      PRECIP     EVAPORATION        RUNOFF
   1   116.9099     8.4436E+07    3.0960E+04    4.4597E+05    3.9599E+05    0.0000E+00
   2   111.7423     5.2139E+07    5.1792E+04    4.4597E+05    3.9599E+05    0.0000E+00

            GROUND WATER            SURFACE WATER        WATER
 LAKE    INFLOW     OUTFLOW      INFLOW     OUTFLOW       USE
   1  1.3447E+06  0.0000E+00  6.1818E+06  7.5455E+06  0.0000E+00
   2  1.4575E+06  0.0000E+00  8.3753E+06  9.8310E+06  0.0000E+00

      CONNECTED LAKE   TIME-STEP         STAGE-CHANGE          PERCENT
 LAKE    INFLUX      SURFACE AREA   TIME STEP  CUMULATIVE    DISCREPANCY
   1   0.0000E+00     6.2500E+06   4.9536E-03 -1.3090E+01       0.000
   2   0.0000E+00     6.2500E+06   8.2867E-03 -1.8258E+01       0.000
 --------------------------------------------------------------------------------



            CUMULATIVE HYDROLOGIC BUDGET SUMMARIES FOR SIMULATED LAKES
     (ALL FLUID FLUXES ARE SUMS OF VOLUMES ADDED TO THE LAKE SINCE INITIAL TIME)
     ---------------------------------------------------------------------------
 LAKE       PRECIP       EVAP       RUNOFF
   1     2.6101E+07  2.3176E+07  0.0000E+00
   2     2.6101E+07  2.3176E+07  0.0000E+00

            GROUND WATER            SURFACE WATER
 LAKE    INFLOW     OUTFLOW      INFLOW     OUTFLOW
   1  4.1106E+07  1.5644E+06  3.1350E+08  4.3777E+08
   2  5.3611E+07  1.4259E+06  4.6846E+08  6.3768E+08

         WATER    CONNECTED LAKE   CHANGE       PERCENT
 LAKE     USE         INFLUX       IN VOL.    DISCREPANCY
   1   0.0000E+00   0.0000E+00  -8.1812E+07      0.000
   2   0.0000E+00   0.0000E+00  -1.1411E+08      0.000
 --------------------------------------------------------------------------------

 
 SOLVING FOR HEAD 
     6 ITERATIONS FOR TIME STEP  70 IN STRESS PERIOD    1

 HEAD/DRAWDOWN PRINTOUT FLAG = 1     TOTAL BUDGET PRINTOUT FLAG = 1
 CELL-BY-CELL FLOW TERM FLAG = 1

 OUTPUT FLAGS FOR EACH LAYER:
          HEAD    DRAWDOWN  HEAD  DRAWDOWN
 LAYER  PRINTOUT  PRINTOUT  SAVE    SAVE
 -----------------------------------------
    1       0         0       0       0
    2       0         0       0       0
    3       0         0       0       0
    4       0         0       0       0
    5       1         0       0       0



 STREAM LISTING     PERIOD      1   STEP       70

 LAYER ROW COL. STREAM  RCH.  FLOW INTO     FLOW TO   FLOW OUT OF   OVRLND.     DIRECT     STREAM       STREAM     STREAM     STREAM   STREAMBED  STREAMBED
                SEG.NO.  NO.  STRM. RCH.    AQUIFER    STRM. RCH.    RUNOFF     PRECIP       ET          HEAD       DEPTH      WIDTH   CONDCTNC.   GRADIENT

   1    2    5     1     1    6.9120E+05 -7.8924E+04   7.7012E+05  0.000E+00  0.000E+00  0.000E+00  1.25330E+02  1.381E+00  5.000E+00  5.000E+03 -3.157E+01
   1    3    5     1     2    7.7012E+05 -5.3043E+04   8.2317E+05  0.000E+00  0.000E+00  0.000E+00  1.24300E+02  1.455E+00  5.000E+00  5.000E+03 -2.122E+01
   1    4    5     1     3    8.2317E+05 -4.6378E+04   8.6955E+05  0.000E+00  0.000E+00  0.000E+00  1.23250E+02  1.509E+00  5.000E+00  5.000E+03 -1.855E+01
   1    4    6     1     4    8.6955E+05 -3.7800E+04   9.0735E+05  0.000E+00  0.000E+00  0.000E+00  1.22191E+02  1.553E+00  5.000E+00  5.000E+03 -1.512E+01
   1    4    7     1     5    9.0735E+05 -1.8669E+04   9.2602E+05  0.000E+00  0.000E+00  0.000E+00  1.21393E+02  1.583E+00  5.000E+00  2.500E+03 -1.494E+01
   1    4    8     1     6    9.2602E+05 -3.0855E+04   9.5687E+05  0.000E+00  0.000E+00  0.000E+00  1.20729E+02  1.608E+00  5.000E+00  3.750E+03 -1.646E+01
   1    5    8     1     7    9.5687E+05 -2.9958E+04   9.8683E+05  0.000E+00  0.000E+00  0.000E+00  1.19794E+02  1.639E+00  5.000E+00  5.000E+03 -1.198E+01
   1    6    8     1     8    9.8683E+05 -1.9843E+04   1.0067E+06  0.000E+00  0.000E+00  0.000E+00  1.18716E+02  1.664E+00  5.000E+00  5.000E+03 -7.937E+00
   1   12    9     2     1    1.2314E+06 -2.0217E+04   1.2517E+06  0.000E+00  0.000E+00  0.000E+00  1.16515E+02  2.075E+00  5.000E+00  5.000E+03 -8.087E+00
   1   13    9     2     2    1.2517E+06 -3.0680E+04   1.2823E+06  0.000E+00  0.000E+00  0.000E+00  1.15719E+02  2.100E+00  5.000E+00  5.000E+03 -1.227E+01
   1   14   10     2     3    1.2823E+06 -1.6754E+04   1.2991E+06  0.000E+00  0.000E+00  0.000E+00  1.15103E+02  2.124E+00  5.000E+00  2.795E+03 -1.199E+01
   1   14   10     2     4    1.2991E+06 -1.7988E+04   1.3171E+06  0.000E+00  0.000E+00  0.000E+00  1.14662E+02  2.141E+00  5.000E+00  2.795E+03 -1.287E+01
   1   15   10     2     5    1.3171E+06 -3.0088E+04   1.3472E+06  0.000E+00  0.000E+00  0.000E+00  1.14045E+02  2.164E+00  5.000E+00  5.000E+03 -1.204E+01
   1   16   10     2     6    1.3472E+06 -2.0629E+04   1.3678E+06  0.000E+00  0.000E+00  0.000E+00  1.13249E+02  2.189E+00  5.000E+00  5.000E+03 -8.251E+00
   1   22   10     3     1    1.6076E+06 -2.2705E+04   1.6303E+06  0.000E+00  0.000E+00  0.000E+00  1.11287E+02  2.332E+00  5.000E+00  5.000E+03 -9.082E+00
   1   23   10     3     2    1.6303E+06 -3.3608E+04   1.6639E+06  0.000E+00  0.000E+00  0.000E+00  1.10484E+02  2.356E+00  5.000E+00  3.750E+03 -1.792E+01
   1   23   11     3     3    1.6639E+06 -2.0481E+04   1.6843E+06  0.000E+00  0.000E+00  0.000E+00  1.09916E+02  2.379E+00  5.000E+00  2.500E+03 -1.638E+01
   1   23   12     3     4    1.6843E+06 -4.1537E+04   1.7259E+06  0.000E+00  0.000E+00  0.000E+00  1.09233E+02  2.405E+00  5.000E+00  5.000E+03 -1.661E+01
   1   23   13     3     5    1.7259E+06 -4.5483E+04   1.7714E+06  0.000E+00  0.000E+00  0.000E+00  1.08324E+02  2.442E+00  5.000E+00  5.000E+03 -1.819E+01
   1   23   14     3     6    1.7714E+06 -5.0187E+04   1.8216E+06  0.000E+00  0.000E+00  0.000E+00  1.07418E+02  2.482E+00  5.000E+00  5.000E+03 -2.007E+01
   1   23   15     3     7    1.8216E+06 -5.9133E+04   1.8807E+06  0.000E+00  0.000E+00  0.000E+00  1.06517E+02  2.527E+00  5.000E+00  5.000E+03 -2.365E+01
   1   23   16     3     8    1.8807E+06 -8.9275E+04   1.9700E+06  0.000E+00  0.000E+00  0.000E+00  1.05631E+02  2.587E+00  5.000E+00  5.000E+03 -3.571E+01





     0  LAKE CELLS ARE DRY.

 PERIOD     1     TIME STEP    70     TIME STEP LENGTH  6.1821E+00
 PERIOD TIME  3.6619E+02     TOTAL SIMULATION TIME  3.6619E+02


                 HYDROLOGIC BUDGET SUMMARIES FOR SIMULATED LAKES
     (ALL FLUID FLUXES ARE VOLUMES ADDED TO THE LAKE DURING PRESENT TIME STEP)
     -------------------------------------------------------------------------
 LAKE    STAGE         VOLUME     VOL.CHANGE      PRECIP     EVAPORATION        RUNOFF
   1   116.9148     8.4466E+07    3.0152E+04    4.4820E+05    3.9797E+05    0.0000E+00
   2   111.7504     5.2189E+07    5.0760E+04    4.4820E+05    3.9797E+05    0.0000E+00

            GROUND WATER            SURFACE WATER        WATER
 LAKE    INFLOW     OUTFLOW      INFLOW     OUTFLOW       USE
   1  1.3695E+06  0.0000E+00  6.2234E+06  7.6130E+06  0.0000E+00
   2  1.4827E+06  0.0000E+00  8.4559E+06  9.9381E+06  0.0000E+00

      CONNECTED LAKE   TIME-STEP         STAGE-CHANGE          PERCENT
 LAKE    INFLUX      SURFACE AREA   TIME STEP  CUMULATIVE    DISCREPANCY
   1   0.0000E+00     6.2500E+06   4.8235E-03 -1.3085E+01       0.000
   2   0.0000E+00     6.2500E+06   8.1219E-03 -1.8250E+01       0.000
 --------------------------------------------------------------------------------



            CUMULATIVE HYDROLOGIC BUDGET SUMMARIES FOR SIMULATED LAKES
     (ALL FLUID FLUXES ARE SUMS OF VOLUMES ADDED TO THE LAKE SINCE INITIAL TIME)
     ---------------------------------------------------------------------------
 LAKE       PRECIP       EVAP       RUNOFF
   1     2.6549E+07  2.3574E+07  0.0000E+00
   2     2.6549E+07  2.3574E+07  0.0000E+00

            GROUND WATER            SURFACE WATER
 LAKE    INFLOW     OUTFLOW      INFLOW     OUTFLOW
   1  4.2476E+07  1.5644E+06  3.1972E+08  4.4539E+08
   2  5.5093E+07  1.4259E+06  4.7692E+08  6.4762E+08

         WATER    CONNECTED LAKE   CHANGE       PERCENT
 LAKE     USE         INFLUX       IN VOL.    DISCREPANCY
   1   0.0000E+00   0.0000E+00  -8.1782E+07      0.000
   2   0.0000E+00   0.0000E+00  -1.1406E+08      0.000
 --------------------------------------------------------------------------------

1
              HEAD IN LAYER   5 AT END OF TIME STEP  70 IN STRESS PERIOD    1
  ---------------------------------------------------------------------------

          1      2      3      4      5      6      7      8      9     10
 .........................................................................
   1   160.0  158.9  157.3  155.8  154.2  152.7  151.5  150.8  150.0  149.2
   2   160.0  158.0  155.0  150.8  141.1  146.4  146.8  146.7  146.4  146.0
   3   160.0  157.2  152.7  146.6  134.9  139.1  139.9  140.2  140.9  141.3
   4   160.0  156.7  151.4  144.8  132.5  129.8  128.9  129.0  133.6  136.1
   5   160.0  156.5  151.1  145.2  138.3  133.0  129.0  125.8  129.5  132.0
   6   160.0  156.3  150.9  145.3  139.2  132.2  126.2  122.7  124.6  126.2
   7   160.0  156.3  150.7  145.1  138.8  129.9  117.6  117.1  117.2  117.2
   8   160.0  156.2  150.7  145.0  138.6  129.1  117.3  116.9  116.9  116.9
   9   160.0  156.2  150.6  145.0  138.5  128.9  117.3  116.9  116.9  116.9
  10   160.0  156.2  150.6  145.0  138.5  129.1  117.3  116.9  116.9  116.9
  11   160.0  156.2  150.6  145.0  138.8  129.9  117.6  117.1  117.0  117.1
  12   160.0  156.2  150.6  145.2  139.5  132.6  126.7  123.6  120.6  123.0
  13   160.0  156.2  150.7  145.4  140.1  134.4  129.8  126.4  121.9  124.7
  14   160.0  156.2  150.7  145.4  140.3  134.9  130.9  128.0  124.7  121.1
  15   160.0  156.2  150.6  145.2  139.8  133.9  129.6  126.8  123.7  120.1
  16   160.0  156.2  150.5  144.8  138.7  131.1  124.7  121.9  119.7  117.4
  17   160.0  156.2  150.4  144.6  137.7  127.4  112.6  112.1  112.0  111.9
  18   160.0  156.2  150.4  144.6  137.4  126.3  112.2  111.8  111.8  111.8
  19   160.0  156.2  150.5  144.6  137.4  126.1  112.2  111.8  111.7  111.8
  20   160.0  156.2  150.6  144.8  137.8  126.7  112.2  111.8  111.8  111.8
  21   160.0  156.3  150.8  145.2  138.6  128.2  112.7  112.1  112.0  111.9
  22   160.0  156.4  151.2  146.0  140.3  133.0  126.2  122.9  119.8  115.9
  23   160.0  156.7  151.9  147.4  143.0  138.2  134.0  130.8  126.4  119.5
  24   160.0  157.1  153.0  149.2  145.8  142.5  140.0  138.2  136.4  134.6
  25   160.0  157.6  154.3  151.4  148.7  146.3  144.5  143.4  142.3  141.3
  26   160.0  158.3  155.9  153.9  151.9  150.0  148.7  147.8  147.0  146.2
  27   160.0  158.9  157.3  155.8  154.2  152.7  151.5  150.8  150.0  149.2
1
              HEAD IN LAYER   5 AT END OF TIME STEP  70 IN STRESS PERIOD    1
  ---------------------------------------------------------------------------

         11     12     13     14     15     16     17
 ....................................................
   1   148.5  147.3  145.8  144.2  142.7  141.1  140.0
   2   145.6  144.8  143.6  142.4  141.3  140.3  140.0
   3   141.5  141.4  140.9  140.3  139.8  139.7  140.0
   4   137.4  138.4  138.6  138.6  138.7  139.2  140.0
   5   133.7  135.6  136.8  137.4  138.0  138.9  140.0
   6   128.1  132.1  135.0  136.4  137.5  138.8  140.0
   7   117.6  128.6  133.9  136.0  137.3  138.7  140.0
   8   117.3  127.5  133.4  135.7  137.1  138.6  140.0
   9   117.2  127.0  133.1  135.6  137.1  138.6  140.0
  10   117.2  127.1  133.1  135.5  137.0  138.6  140.0
  11   117.5  127.7  133.3  135.6  137.0  138.6  140.0
  12   125.3  129.9  133.7  135.6  137.0  138.6  140.0
  13   127.4  131.1  134.1  135.7  137.1  138.6  140.0
  14   125.8  130.6  133.9  135.6  137.0  138.6  140.0
  15   124.5  129.5  133.4  135.4  136.9  138.5  140.0
  16   121.2  127.3  132.4  134.9  136.7  138.5  140.0
  17   112.4  124.4  131.4  134.4  136.3  138.3  140.0
  18   112.1  123.3  130.7  133.9  136.0  138.1  140.0
  19   112.1  122.6  129.9  133.3  135.5  137.9  140.0
  20   112.1  122.2  129.0  132.4  134.6  137.4  140.0
  21   112.3  121.9  127.9  131.0  133.3  136.6  140.0
  22   118.1  121.9  125.4  127.8  130.1  134.3  140.0
  23   118.1  117.6  117.4  117.5  118.4  123.5  140.0
  24   133.3  132.1  131.3  131.0  131.7  134.8  140.0
  25   140.4  139.2  138.1  137.4  137.2  138.3  140.0
  26   145.4  144.2  142.8  141.6  140.6  140.0  140.0
  27   148.5  147.3  145.8  144.2  142.7  141.1  140.0
1
  VOLUMETRIC BUDGET FOR ENTIRE MODEL AT END OF TIME STEP 70 IN STRESS PERIOD   1
  ------------------------------------------------------------------------------

     CUMULATIVE VOLUMES      L**3       RATES FOR THIS TIME STEP      L**3/T
     ------------------                 ------------------------

           IN:                                      IN:
           ---                                      ---
             STORAGE =     2934567.7500               STORAGE =           0.0000
       CONSTANT HEAD =   669736256.0000         CONSTANT HEAD =      728867.6250
                  ET =           0.0000                    ET =           0.0000
            RECHARGE =  1008862272.0000              RECHARGE =     2755000.0000
     SPECIFIED FLOWS =           0.0000       SPECIFIED FLOWS =           0.0000
      STREAM LEAKAGE =     3694574.2500        STREAM LEAKAGE =           0.0000
       LAKE  SEEPAGE =     2990331.7500         LAKE  SEEPAGE =           0.0000

            TOTAL IN =  1688217984.0000              TOTAL IN =     3483867.5000

          OUT:                                     OUT:
          ----                                     ----
             STORAGE =  1145534464.0000               STORAGE =      895287.6250
       CONSTANT HEAD =       93081.7344         CONSTANT HEAD =        1226.6517
                  ET =   237788592.0000                    ET =     1311681.1250
            RECHARGE =           0.0000              RECHARGE =           0.0000
     SPECIFIED FLOWS =           0.0000       SPECIFIED FLOWS =           0.0000
      STREAM LEAKAGE =   207230192.0000        STREAM LEAKAGE =      814235.7500
       LAKE  SEEPAGE =    97569016.0000         LAKE  SEEPAGE =      461363.7500

           TOTAL OUT =  1688215296.0000             TOTAL OUT =     3483795.0000

            IN - OUT =        2688.0000              IN - OUT =          72.5000

 PERCENT DISCREPANCY =           0.00     PERCENT DISCREPANCY =           0.00






          TIME SUMMARY AT END OF TIME STEP  70 IN STRESS PERIOD    1
                    SECONDS     MINUTES      HOURS       DAYS        YEARS
                    -----------------------------------------------------------
   TIME STEP LENGTH 5.34136E+05  8902.3      148.37      6.1821     1.69258E-02
 STRESS PERIOD TIME 3.16391E+07 5.27318E+05  8788.6      366.19      1.0026    
         TOTAL TIME 3.16391E+07 5.27318E+05  8788.6      366.19      1.0026    
1
 
 SOLVING FOR HEAD 
     6 ITERATIONS FOR TIME STEP  71 IN STRESS PERIOD    1

 HEAD/DRAWDOWN PRINTOUT FLAG = 0     TOTAL BUDGET PRINTOUT FLAG = 0
 CELL-BY-CELL FLOW TERM FLAG = 1

 OUTPUT FLAGS FOR ALL LAYERS ARE THE SAME:
   HEAD    DRAWDOWN  HEAD  DRAWDOWN
 PRINTOUT  PRINTOUT  SAVE    SAVE
 ----------------------------------
     0         0       0       0



 STREAM LISTING     PERIOD      1   STEP       71

 LAYER ROW COL. STREAM  RCH.  FLOW INTO     FLOW TO   FLOW OUT OF   OVRLND.     DIRECT     STREAM       STREAM     STREAM     STREAM   STREAMBED  STREAMBED
                SEG.NO.  NO.  STRM. RCH.    AQUIFER    STRM. RCH.    RUNOFF     PRECIP       ET          HEAD       DEPTH      WIDTH   CONDCTNC.   GRADIENT

   1    2    5     1     1    6.9120E+05 -7.8983E+04   7.7018E+05  0.000E+00  0.000E+00  0.000E+00  1.25330E+02  1.381E+00  5.000E+00  5.000E+03 -3.159E+01
   1    3    5     1     2    7.7018E+05 -5.3214E+04   8.2340E+05  0.000E+00  0.000E+00  0.000E+00  1.24300E+02  1.455E+00  5.000E+00  5.000E+03 -2.129E+01
   1    4    5     1     3    8.2340E+05 -4.6726E+04   8.7012E+05  0.000E+00  0.000E+00  0.000E+00  1.23250E+02  1.509E+00  5.000E+00  5.000E+03 -1.869E+01
   1    4    6     1     4    8.7012E+05 -3.8063E+04   9.0819E+05  0.000E+00  0.000E+00  0.000E+00  1.22192E+02  1.554E+00  5.000E+00  5.000E+03 -1.523E+01
   1    4    7     1     5    9.0819E+05 -1.8785E+04   9.2697E+05  0.000E+00  0.000E+00  0.000E+00  1.21394E+02  1.584E+00  5.000E+00  2.500E+03 -1.503E+01
   1    4    8     1     6    9.2697E+05 -3.1042E+04   9.5801E+05  0.000E+00  0.000E+00  0.000E+00  1.20730E+02  1.609E+00  5.000E+00  3.750E+03 -1.656E+01
   1    5    8     1     7    9.5801E+05 -3.0256E+04   9.8827E+05  0.000E+00  0.000E+00  0.000E+00  1.19796E+02  1.640E+00  5.000E+00  5.000E+03 -1.210E+01
   1    6    8     1     8    9.8827E+05 -2.0072E+04   1.0083E+06  0.000E+00  0.000E+00  0.000E+00  1.18717E+02  1.666E+00  5.000E+00  5.000E+03 -8.029E+00
   1   12    9     2     1    1.2361E+06 -2.0429E+04   1.2566E+06  0.000E+00  0.000E+00  0.000E+00  1.16519E+02  2.080E+00  5.000E+00  5.000E+03 -8.171E+00
   1   13    9     2     2    1.2566E+06 -3.1035E+04   1.2876E+06  0.000E+00  0.000E+00  0.000E+00  1.15724E+02  2.105E+00  5.000E+00  5.000E+03 -1.241E+01
   1   14   10     2     3    1.2876E+06 -1.6942E+04   1.3045E+06  0.000E+00  0.000E+00  0.000E+00  1.15109E+02  2.129E+00  5.000E+00  2.795E+03 -1.212E+01
   1   14   10     2     4    1.3045E+06 -1.8176E+04   1.3227E+06  0.000E+00  0.000E+00  0.000E+00  1.14667E+02  2.146E+00  5.000E+00  2.795E+03 -1.301E+01
   1   15   10     2     5    1.3227E+06 -3.0398E+04   1.3531E+06  0.000E+00  0.000E+00  0.000E+00  1.14051E+02  2.170E+00  5.000E+00  5.000E+03 -1.216E+01
   1   16   10     2     6    1.3531E+06 -2.0823E+04   1.3739E+06  0.000E+00  0.000E+00  0.000E+00  1.13255E+02  2.195E+00  5.000E+00  5.000E+03 -8.329E+00
   1   22   10     3     1    1.6167E+06 -2.2890E+04   1.6396E+06  0.000E+00  0.000E+00  0.000E+00  1.11295E+02  2.340E+00  5.000E+00  5.000E+03 -9.156E+00
   1   23   10     3     2    1.6396E+06 -3.3882E+04   1.6735E+06  0.000E+00  0.000E+00  0.000E+00  1.10492E+02  2.364E+00  5.000E+00  3.750E+03 -1.807E+01
   1   23   11     3     3    1.6735E+06 -2.0620E+04   1.6941E+06  0.000E+00  0.000E+00  0.000E+00  1.09924E+02  2.387E+00  5.000E+00  2.500E+03 -1.650E+01
   1   23   12     3     4    1.6941E+06 -4.1776E+04   1.7359E+06  0.000E+00  0.000E+00  0.000E+00  1.09241E+02  2.414E+00  5.000E+00  5.000E+03 -1.671E+01
   1   23   13     3     5    1.7359E+06 -4.5710E+04   1.7816E+06  0.000E+00  0.000E+00  0.000E+00  1.08332E+02  2.450E+00  5.000E+00  5.000E+03 -1.828E+01
   1   23   14     3     6    1.7816E+06 -5.0379E+04   1.8320E+06  0.000E+00  0.000E+00  0.000E+00  1.07426E+02  2.490E+00  5.000E+00  5.000E+03 -2.015E+01
   1   23   15     3     7    1.8320E+06 -5.9256E+04   1.8913E+06  0.000E+00  0.000E+00  0.000E+00  1.06526E+02  2.535E+00  5.000E+00  5.000E+03 -2.370E+01
   1   23   16     3     8    1.8913E+06 -8.9312E+04   1.9806E+06  0.000E+00  0.000E+00  0.000E+00  1.05640E+02  2.596E+00  5.000E+00  5.000E+03 -3.572E+01





     0  LAKE CELLS ARE DRY.

 PERIOD     1     TIME STEP    71     TIME STEP LENGTH  6.2130E+00
 PERIOD TIME  3.7241E+02     TOTAL SIMULATION TIME  3.7241E+02


                 HYDROLOGIC BUDGET SUMMARIES FOR SIMULATED LAKES
     (ALL FLUID FLUXES ARE VOLUMES ADDED TO THE LAKE DURING PRESENT TIME STEP)
     -------------------------------------------------------------------------
 LAKE    STAGE         VOLUME     VOL.CHANGE      PRECIP     EVAPORATION        RUNOFF
   1   116.9194     8.4496E+07    2.9312E+04    4.5045E+05    3.9996E+05    0.0000E+00
   2   111.7584     5.2239E+07    4.9724E+04    4.5045E+05    3.9996E+05    0.0000E+00

            GROUND WATER            SURFACE WATER        WATER
 LAKE    INFLOW     OUTFLOW      INFLOW     OUTFLOW       USE
   1  1.3941E+06  0.0000E+00  6.2649E+06  7.6801E+06  0.0000E+00
   2  1.5079E+06  0.0000E+00  8.5363E+06  1.0045E+07  0.0000E+00

      CONNECTED LAKE   TIME-STEP         STAGE-CHANGE          PERCENT
 LAKE    INFLUX      SURFACE AREA   TIME STEP  CUMULATIVE    DISCREPANCY
   1   0.0000E+00     6.2500E+06   4.6906E-03 -1.3081E+01       0.000
   2   0.0000E+00     6.2500E+06   7.9560E-03 -1.8242E+01       0.000
 --------------------------------------------------------------------------------



            CUMULATIVE HYDROLOGIC BUDGET SUMMARIES FOR SIMULATED LAKES
     (ALL FLUID FLUXES ARE SUMS OF VOLUMES ADDED TO THE LAKE SINCE INITIAL TIME)
     ---------------------------------------------------------------------------
 LAKE       PRECIP       EVAP       RUNOFF
   1     2.6999E+07  2.3974E+07  0.0000E+00
   2     2.6999E+07  2.3974E+07  0.0000E+00

            GROUND WATER            SURFACE WATER
 LAKE    INFLOW     OUTFLOW      INFLOW     OUTFLOW
   1  4.3870E+07  1.5644E+06  3.2598E+08  4.5307E+08
   2  5.6601E+07  1.4259E+06  4.8545E+08  6.5766E+08

         WATER    CONNECTED LAKE   CHANGE       PERCENT
 LAKE     USE         INFLUX       IN VOL.    DISCREPANCY
   1   0.0000E+00   0.0000E+00  -8.1753E+07      0.000
   2   0.0000E+00   0.0000E+00  -1.1401E+08      0.000
 --------------------------------------------------------------------------------

 
 SOLVING FOR HEAD 
     6 ITERATIONS FOR TIME STEP  72 IN STRESS PERIOD    1

 HEAD/DRAWDOWN PRINTOUT FLAG = 0     TOTAL BUDGET PRINTOUT FLAG = 0
 CELL-BY-CELL FLOW TERM FLAG = 1

 OUTPUT FLAGS FOR ALL LAYERS ARE THE SAME:
   HEAD    DRAWDOWN  HEAD  DRAWDOWN
 PRINTOUT  PRINTOUT  SAVE    SAVE
 ----------------------------------
     0         0       0       0



 STREAM LISTING     PERIOD      1   STEP       72

 LAYER ROW COL. STREAM  RCH.  FLOW INTO     FLOW TO   FLOW OUT OF   OVRLND.     DIRECT     STREAM       STREAM     STREAM     STREAM   STREAMBED  STREAMBED
                SEG.NO.  NO.  STRM. RCH.    AQUIFER    STRM. RCH.    RUNOFF     PRECIP       ET          HEAD       DEPTH      WIDTH   CONDCTNC.   GRADIENT

   1    2    5     1     1    6.9120E+05 -7.9039E+04   7.7024E+05  0.000E+00  0.000E+00  0.000E+00  1.25330E+02  1.381E+00  5.000E+00  5.000E+03 -3.162E+01
   1    3    5     1     2    7.7024E+05 -5.3377E+04   8.2362E+05  0.000E+00  0.000E+00  0.000E+00  1.24300E+02  1.455E+00  5.000E+00  5.000E+03 -2.135E+01
   1    4    5     1     3    8.2362E+05 -4.7060E+04   8.7068E+05  0.000E+00  0.000E+00  0.000E+00  1.23251E+02  1.509E+00  5.000E+00  5.000E+03 -1.882E+01
   1    4    6     1     4    8.7068E+05 -3.8317E+04   9.0899E+05  0.000E+00  0.000E+00  0.000E+00  1.22193E+02  1.555E+00  5.000E+00  5.000E+03 -1.533E+01
   1    4    7     1     5    9.0899E+05 -1.8897E+04   9.2789E+05  0.000E+00  0.000E+00  0.000E+00  1.21395E+02  1.584E+00  5.000E+00  2.500E+03 -1.512E+01
   1    4    8     1     6    9.2789E+05 -3.1221E+04   9.5911E+05  0.000E+00  0.000E+00  0.000E+00  1.20731E+02  1.610E+00  5.000E+00  3.750E+03 -1.665E+01
   1    5    8     1     7    9.5911E+05 -3.0544E+04   9.8965E+05  0.000E+00  0.000E+00  0.000E+00  1.19797E+02  1.642E+00  5.000E+00  5.000E+03 -1.222E+01
   1    6    8     1     8    9.8965E+05 -2.0295E+04   1.0099E+06  0.000E+00  0.000E+00  0.000E+00  1.18719E+02  1.667E+00  5.000E+00  5.000E+03 -8.118E+00
   1   12    9     2     1    1.2407E+06 -2.0639E+04   1.2613E+06  0.000E+00  0.000E+00  0.000E+00  1.16524E+02  2.084E+00  5.000E+00  5.000E+03 -8.256E+00
   1   13    9     2     2    1.2613E+06 -3.1387E+04   1.2927E+06  0.000E+00  0.000E+00  0.000E+00  1.15729E+02  2.110E+00  5.000E+00  5.000E+03 -1.255E+01
   1   14   10     2     3    1.2927E+06 -1.7128E+04   1.3098E+06  0.000E+00  0.000E+00  0.000E+00  1.15114E+02  2.134E+00  5.000E+00  2.795E+03 -1.226E+01
   1   14   10     2     4    1.3098E+06 -1.8362E+04   1.3282E+06  0.000E+00  0.000E+00  0.000E+00  1.14672E+02  2.152E+00  5.000E+00  2.795E+03 -1.314E+01
   1   15   10     2     5    1.3282E+06 -3.0706E+04   1.3589E+06  0.000E+00  0.000E+00  0.000E+00  1.14057E+02  2.176E+00  5.000E+00  5.000E+03 -1.228E+01
   1   16   10     2     6    1.3589E+06 -2.1015E+04   1.3799E+06  0.000E+00  0.000E+00  0.000E+00  1.13261E+02  2.201E+00  5.000E+00  5.000E+03 -8.406E+00
   1   22   10     3     1    1.6258E+06 -2.3073E+04   1.6488E+06  0.000E+00  0.000E+00  0.000E+00  1.11303E+02  2.347E+00  5.000E+00  5.000E+03 -9.229E+00
   1   23   10     3     2    1.6488E+06 -3.4147E+04   1.6830E+06  0.000E+00  0.000E+00  0.000E+00  1.10500E+02  2.372E+00  5.000E+00  3.750E+03 -1.821E+01
   1   23   11     3     3    1.6830E+06 -2.0755E+04   1.7037E+06  0.000E+00  0.000E+00  0.000E+00  1.09932E+02  2.395E+00  5.000E+00  2.500E+03 -1.660E+01
   1   23   12     3     4    1.7037E+06 -4.2007E+04   1.7457E+06  0.000E+00  0.000E+00  0.000E+00  1.09249E+02  2.422E+00  5.000E+00  5.000E+03 -1.680E+01
   1   23   13     3     5    1.7457E+06 -4.5928E+04   1.7917E+06  0.000E+00  0.000E+00  0.000E+00  1.08341E+02  2.459E+00  5.000E+00  5.000E+03 -1.837E+01
   1   23   14     3     6    1.7917E+06 -5.0563E+04   1.8422E+06  0.000E+00  0.000E+00  0.000E+00  1.07435E+02  2.499E+00  5.000E+00  5.000E+03 -2.023E+01
   1   23   15     3     7    1.8422E+06 -5.9374E+04   1.9016E+06  0.000E+00  0.000E+00  0.000E+00  1.06534E+02  2.544E+00  5.000E+00  5.000E+03 -2.375E+01
   1   23   16     3     8    1.9016E+06 -8.9347E+04   1.9909E+06  0.000E+00  0.000E+00  0.000E+00  1.05648E+02  2.604E+00  5.000E+00  5.000E+03 -3.574E+01





     0  LAKE CELLS ARE DRY.

 PERIOD     1     TIME STEP    72     TIME STEP LENGTH  6.2441E+00
 PERIOD TIME  3.7865E+02     TOTAL SIMULATION TIME  3.7865E+02


                 HYDROLOGIC BUDGET SUMMARIES FOR SIMULATED LAKES
     (ALL FLUID FLUXES ARE VOLUMES ADDED TO THE LAKE DURING PRESENT TIME STEP)
     -------------------------------------------------------------------------
 LAKE    STAGE         VOLUME     VOL.CHANGE      PRECIP     EVAPORATION        RUNOFF
   1   116.9240     8.4524E+07    2.8528E+04    4.5270E+05    4.0196E+05    0.0000E+00
   2   111.7662     5.2288E+07    4.8728E+04    4.5270E+05    4.0196E+05    0.0000E+00

            GROUND WATER            SURFACE WATER        WATER
 LAKE    INFLOW     OUTFLOW      INFLOW     OUTFLOW       USE
   1  1.4185E+06  0.0000E+00  6.3062E+06  7.7469E+06  0.0000E+00
   2  1.5330E+06  0.0000E+00  8.6163E+06  1.0151E+07  0.0000E+00

      CONNECTED LAKE   TIME-STEP         STAGE-CHANGE          PERCENT
 LAKE    INFLUX      SURFACE AREA   TIME STEP  CUMULATIVE    DISCREPANCY
   1   0.0000E+00     6.2500E+06   4.5643E-03 -1.3076E+01       0.000
   2   0.0000E+00     6.2500E+06   7.7970E-03 -1.8234E+01       0.000
 --------------------------------------------------------------------------------



            CUMULATIVE HYDROLOGIC BUDGET SUMMARIES FOR SIMULATED LAKES
     (ALL FLUID FLUXES ARE SUMS OF VOLUMES ADDED TO THE LAKE SINCE INITIAL TIME)
     ---------------------------------------------------------------------------
 LAKE       PRECIP       EVAP       RUNOFF
   1     2.7452E+07  2.4376E+07  0.0000E+00
   2     2.7452E+07  2.4376E+07  0.0000E+00

            GROUND WATER            SURFACE WATER
 LAKE    INFLOW     OUTFLOW      INFLOW     OUTFLOW
   1  4.5288E+07  1.5644E+06  3.3229E+08  4.6081E+08
   2  5.8134E+07  1.4259E+06  4.9407E+08  6.6781E+08

         WATER    CONNECTED LAKE   CHANGE       PERCENT
 LAKE     USE         INFLUX       IN VOL.    DISCREPANCY
   1   0.0000E+00   0.0000E+00  -8.1724E+07      0.000
   2   0.0000E+00   0.0000E+00  -1.1396E+08      0.000
 --------------------------------------------------------------------------------

 
 SOLVING FOR HEAD 
     6 ITERATIONS FOR TIME STEP  73 IN STRESS PERIOD    1

 HEAD/DRAWDOWN PRINTOUT FLAG = 0     TOTAL BUDGET PRINTOUT FLAG = 0
 CELL-BY-CELL FLOW TERM FLAG = 1

 OUTPUT FLAGS FOR ALL LAYERS ARE THE SAME:
   HEAD    DRAWDOWN  HEAD  DRAWDOWN
 PRINTOUT  PRINTOUT  SAVE    SAVE
 ----------------------------------
     0         0       0       0



 STREAM LISTING     PERIOD      1   STEP       73

 LAYER ROW COL. STREAM  RCH.  FLOW INTO     FLOW TO   FLOW OUT OF   OVRLND.     DIRECT     STREAM       STREAM     STREAM     STREAM   STREAMBED  STREAMBED
                SEG.NO.  NO.  STRM. RCH.    AQUIFER    STRM. RCH.    RUNOFF     PRECIP       ET          HEAD       DEPTH      WIDTH   CONDCTNC.   GRADIENT

   1    2    5     1     1    6.9120E+05 -7.9092E+04   7.7029E+05  0.000E+00  0.000E+00  0.000E+00  1.25330E+02  1.381E+00  5.000E+00  5.000E+03 -3.164E+01
   1    3    5     1     2    7.7029E+05 -5.3532E+04   8.2382E+05  0.000E+00  0.000E+00  0.000E+00  1.24300E+02  1.455E+00  5.000E+00  5.000E+03 -2.141E+01
   1    4    5     1     3    8.2382E+05 -4.7380E+04   8.7120E+05  0.000E+00  0.000E+00  0.000E+00  1.23251E+02  1.510E+00  5.000E+00  5.000E+03 -1.895E+01
   1    4    6     1     4    8.7120E+05 -3.8561E+04   9.0976E+05  0.000E+00  0.000E+00  0.000E+00  1.22193E+02  1.555E+00  5.000E+00  5.000E+03 -1.542E+01
   1    4    7     1     5    9.0976E+05 -1.9004E+04   9.2877E+05  0.000E+00  0.000E+00  0.000E+00  1.21396E+02  1.585E+00  5.000E+00  2.500E+03 -1.520E+01
   1    4    8     1     6    9.2877E+05 -3.1393E+04   9.6016E+05  0.000E+00  0.000E+00  0.000E+00  1.20732E+02  1.611E+00  5.000E+00  3.750E+03 -1.674E+01
   1    5    8     1     7    9.6016E+05 -3.0822E+04   9.9098E+05  0.000E+00  0.000E+00  0.000E+00  1.19798E+02  1.643E+00  5.000E+00  5.000E+03 -1.233E+01
   1    6    8     1     8    9.9098E+05 -2.0512E+04   1.0115E+06  0.000E+00  0.000E+00  0.000E+00  1.18720E+02  1.669E+00  5.000E+00  5.000E+03 -8.205E+00
   1   12    9     2     1    1.2451E+06 -2.0847E+04   1.2659E+06  0.000E+00  0.000E+00  0.000E+00  1.16529E+02  2.089E+00  5.000E+00  5.000E+03 -8.339E+00
   1   13    9     2     2    1.2659E+06 -3.1737E+04   1.2977E+06  0.000E+00  0.000E+00  0.000E+00  1.15734E+02  2.115E+00  5.000E+00  5.000E+03 -1.269E+01
   1   14   10     2     3    1.2977E+06 -1.7313E+04   1.3150E+06  0.000E+00  0.000E+00  0.000E+00  1.15119E+02  2.139E+00  5.000E+00  2.795E+03 -1.239E+01
   1   14   10     2     4    1.3150E+06 -1.8546E+04   1.3335E+06  0.000E+00  0.000E+00  0.000E+00  1.14677E+02  2.157E+00  5.000E+00  2.795E+03 -1.327E+01
   1   15   10     2     5    1.3335E+06 -3.1011E+04   1.3646E+06  0.000E+00  0.000E+00  0.000E+00  1.14062E+02  2.181E+00  5.000E+00  5.000E+03 -1.240E+01
   1   16   10     2     6    1.3646E+06 -2.1206E+04   1.3858E+06  0.000E+00  0.000E+00  0.000E+00  1.13266E+02  2.206E+00  5.000E+00  5.000E+03 -8.482E+00
   1   22   10     3     1    1.6346E+06 -2.3253E+04   1.6578E+06  0.000E+00  0.000E+00  0.000E+00  1.11311E+02  2.355E+00  5.000E+00  5.000E+03 -9.301E+00
   1   23   10     3     2    1.6578E+06 -3.4404E+04   1.6922E+06  0.000E+00  0.000E+00  0.000E+00  1.10508E+02  2.380E+00  5.000E+00  3.750E+03 -1.835E+01
   1   23   11     3     3    1.6922E+06 -2.0885E+04   1.7131E+06  0.000E+00  0.000E+00  0.000E+00  1.09940E+02  2.403E+00  5.000E+00  2.500E+03 -1.671E+01
   1   23   12     3     4    1.7131E+06 -4.2230E+04   1.7553E+06  0.000E+00  0.000E+00  0.000E+00  1.09257E+02  2.430E+00  5.000E+00  5.000E+03 -1.689E+01
   1   23   13     3     5    1.7553E+06 -4.6139E+04   1.8015E+06  0.000E+00  0.000E+00  0.000E+00  1.08349E+02  2.467E+00  5.000E+00  5.000E+03 -1.846E+01
   1   23   14     3     6    1.8015E+06 -5.0740E+04   1.8522E+06  0.000E+00  0.000E+00  0.000E+00  1.07443E+02  2.507E+00  5.000E+00  5.000E+03 -2.030E+01
   1   23   15     3     7    1.8522E+06 -5.9487E+04   1.9117E+06  0.000E+00  0.000E+00  0.000E+00  1.06542E+02  2.552E+00  5.000E+00  5.000E+03 -2.379E+01
   1   23   16     3     8    1.9117E+06 -8.9380E+04   2.0011E+06  0.000E+00  0.000E+00  0.000E+00  1.05656E+02  2.612E+00  5.000E+00  5.000E+03 -3.575E+01





     0  LAKE CELLS ARE DRY.

 PERIOD     1     TIME STEP    73     TIME STEP LENGTH  6.2753E+00
 PERIOD TIME  3.8493E+02     TOTAL SIMULATION TIME  3.8493E+02


                 HYDROLOGIC BUDGET SUMMARIES FOR SIMULATED LAKES
     (ALL FLUID FLUXES ARE VOLUMES ADDED TO THE LAKE DURING PRESENT TIME STEP)
     -------------------------------------------------------------------------
 LAKE    STAGE         VOLUME     VOL.CHANGE      PRECIP     EVAPORATION        RUNOFF
   1   116.9285     8.4552E+07    2.7752E+04    4.5496E+05    4.0397E+05    0.0000E+00
   2   111.7738     5.2336E+07    4.7744E+04    4.5496E+05    4.0397E+05    0.0000E+00

            GROUND WATER            SURFACE WATER        WATER
 LAKE    INFLOW     OUTFLOW      INFLOW     OUTFLOW       USE
   1  1.4427E+06  0.0000E+00  6.3475E+06  7.8134E+06  0.0000E+00
   2  1.5581E+06  0.0000E+00  8.6961E+06  1.0257E+07  0.0000E+00

      CONNECTED LAKE   TIME-STEP         STAGE-CHANGE          PERCENT
 LAKE    INFLUX      SURFACE AREA   TIME STEP  CUMULATIVE    DISCREPANCY
   1   0.0000E+00     6.2500E+06   4.4397E-03 -1.3072E+01       0.000
   2   0.0000E+00     6.2500E+06   7.6392E-03 -1.8226E+01       0.000
 --------------------------------------------------------------------------------



            CUMULATIVE HYDROLOGIC BUDGET SUMMARIES FOR SIMULATED LAKES
     (ALL FLUID FLUXES ARE SUMS OF VOLUMES ADDED TO THE LAKE SINCE INITIAL TIME)
     ---------------------------------------------------------------------------
 LAKE       PRECIP       EVAP       RUNOFF
   1     2.7907E+07  2.4780E+07  0.0000E+00
   2     2.7907E+07  2.4780E+07  0.0000E+00

            GROUND WATER            SURFACE WATER
 LAKE    INFLOW     OUTFLOW      INFLOW     OUTFLOW
   1  4.6731E+07  1.5644E+06  3.3864E+08  4.6863E+08
   2  5.9692E+07  1.4259E+06  5.0276E+08  6.7807E+08

         WATER    CONNECTED LAKE   CHANGE       PERCENT
 LAKE     USE         INFLUX       IN VOL.    DISCREPANCY
   1   0.0000E+00   0.0000E+00  -8.1696E+07      0.000
   2   0.0000E+00   0.0000E+00  -1.1391E+08      0.000
 --------------------------------------------------------------------------------

 
 SOLVING FOR HEAD 
     6 ITERATIONS FOR TIME STEP  74 IN STRESS PERIOD    1

 HEAD/DRAWDOWN PRINTOUT FLAG = 0     TOTAL BUDGET PRINTOUT FLAG = 0
 CELL-BY-CELL FLOW TERM FLAG = 1

 OUTPUT FLAGS FOR ALL LAYERS ARE THE SAME:
   HEAD    DRAWDOWN  HEAD  DRAWDOWN
 PRINTOUT  PRINTOUT  SAVE    SAVE
 ----------------------------------
     0         0       0       0



 STREAM LISTING     PERIOD      1   STEP       74

 LAYER ROW COL. STREAM  RCH.  FLOW INTO     FLOW TO   FLOW OUT OF   OVRLND.     DIRECT     STREAM       STREAM     STREAM     STREAM   STREAMBED  STREAMBED
                SEG.NO.  NO.  STRM. RCH.    AQUIFER    STRM. RCH.    RUNOFF     PRECIP       ET          HEAD       DEPTH      WIDTH   CONDCTNC.   GRADIENT

   1    2    5     1     1    6.9120E+05 -7.9141E+04   7.7034E+05  0.000E+00  0.000E+00  0.000E+00  1.25330E+02  1.381E+00  5.000E+00  5.000E+03 -3.166E+01
   1    3    5     1     2    7.7034E+05 -5.3679E+04   8.2402E+05  0.000E+00  0.000E+00  0.000E+00  1.24300E+02  1.455E+00  5.000E+00  5.000E+03 -2.147E+01
   1    4    5     1     3    8.2402E+05 -4.7686E+04   8.7171E+05  0.000E+00  0.000E+00  0.000E+00  1.23252E+02  1.510E+00  5.000E+00  5.000E+03 -1.907E+01
   1    4    6     1     4    8.7171E+05 -3.8797E+04   9.1050E+05  0.000E+00  0.000E+00  0.000E+00  1.22194E+02  1.556E+00  5.000E+00  5.000E+03 -1.552E+01
   1    4    7     1     5    9.1050E+05 -1.9108E+04   9.2961E+05  0.000E+00  0.000E+00  0.000E+00  1.21396E+02  1.586E+00  5.000E+00  2.500E+03 -1.529E+01
   1    4    8     1     6    9.2961E+05 -3.1558E+04   9.6117E+05  0.000E+00  0.000E+00  0.000E+00  1.20733E+02  1.612E+00  5.000E+00  3.750E+03 -1.683E+01
   1    5    8     1     7    9.6117E+05 -3.1092E+04   9.9226E+05  0.000E+00  0.000E+00  0.000E+00  1.19799E+02  1.644E+00  5.000E+00  5.000E+03 -1.244E+01
   1    6    8     1     8    9.9226E+05 -2.0723E+04   1.0130E+06  0.000E+00  0.000E+00  0.000E+00  1.18722E+02  1.670E+00  5.000E+00  5.000E+03 -8.289E+00
   1   12    9     2     1    1.2494E+06 -2.1053E+04   1.2705E+06  0.000E+00  0.000E+00  0.000E+00  1.16533E+02  2.093E+00  5.000E+00  5.000E+03 -8.421E+00
   1   13    9     2     2    1.2705E+06 -3.2085E+04   1.3025E+06  0.000E+00  0.000E+00  0.000E+00  1.15739E+02  2.120E+00  5.000E+00  5.000E+03 -1.283E+01
   1   14   10     2     3    1.3025E+06 -1.7495E+04   1.3200E+06  0.000E+00  0.000E+00  0.000E+00  1.15123E+02  2.144E+00  5.000E+00  2.795E+03 -1.252E+01
   1   14   10     2     4    1.3200E+06 -1.8728E+04   1.3388E+06  0.000E+00  0.000E+00  0.000E+00  1.14682E+02  2.162E+00  5.000E+00  2.795E+03 -1.340E+01
   1   15   10     2     5    1.3388E+06 -3.1314E+04   1.3701E+06  0.000E+00  0.000E+00  0.000E+00  1.14067E+02  2.186E+00  5.000E+00  5.000E+03 -1.253E+01
   1   16   10     2     6    1.3701E+06 -2.1394E+04   1.3915E+06  0.000E+00  0.000E+00  0.000E+00  1.13272E+02  2.212E+00  5.000E+00  5.000E+03 -8.558E+00
   1   22   10     3     1    1.6432E+06 -2.3429E+04   1.6667E+06  0.000E+00  0.000E+00  0.000E+00  1.11318E+02  2.363E+00  5.000E+00  5.000E+03 -9.371E+00
   1   23   10     3     2    1.6667E+06 -3.4653E+04   1.7013E+06  0.000E+00  0.000E+00  0.000E+00  1.10515E+02  2.387E+00  5.000E+00  3.750E+03 -1.848E+01
   1   23   11     3     3    1.7013E+06 -2.1011E+04   1.7223E+06  0.000E+00  0.000E+00  0.000E+00  1.09948E+02  2.411E+00  5.000E+00  2.500E+03 -1.681E+01
   1   23   12     3     4    1.7223E+06 -4.2446E+04   1.7648E+06  0.000E+00  0.000E+00  0.000E+00  1.09265E+02  2.438E+00  5.000E+00  5.000E+03 -1.698E+01
   1   23   13     3     5    1.7648E+06 -4.6342E+04   1.8111E+06  0.000E+00  0.000E+00  0.000E+00  1.08357E+02  2.475E+00  5.000E+00  5.000E+03 -1.854E+01
   1   23   14     3     6    1.8111E+06 -5.0910E+04   1.8620E+06  0.000E+00  0.000E+00  0.000E+00  1.07451E+02  2.515E+00  5.000E+00  5.000E+03 -2.036E+01
   1   23   15     3     7    1.8620E+06 -5.9595E+04   1.9216E+06  0.000E+00  0.000E+00  0.000E+00  1.06550E+02  2.560E+00  5.000E+00  5.000E+03 -2.384E+01
   1   23   16     3     8    1.9216E+06 -8.9411E+04   2.0110E+06  0.000E+00  0.000E+00  0.000E+00  1.05664E+02  2.620E+00  5.000E+00  5.000E+03 -3.576E+01





     0  LAKE CELLS ARE DRY.

 PERIOD     1     TIME STEP    74     TIME STEP LENGTH  6.3067E+00
 PERIOD TIME  3.9123E+02     TOTAL SIMULATION TIME  3.9123E+02


                 HYDROLOGIC BUDGET SUMMARIES FOR SIMULATED LAKES
     (ALL FLUID FLUXES ARE VOLUMES ADDED TO THE LAKE DURING PRESENT TIME STEP)
     -------------------------------------------------------------------------
 LAKE    STAGE         VOLUME     VOL.CHANGE      PRECIP     EVAPORATION        RUNOFF
   1   116.9328     8.4579E+07    2.6936E+04    4.5724E+05    4.0599E+05    0.0000E+00
   2   111.7813     5.2382E+07    4.6580E+04    4.5724E+05    4.0599E+05    0.0000E+00

            GROUND WATER            SURFACE WATER        WATER
 LAKE    INFLOW     OUTFLOW      INFLOW     OUTFLOW       USE
   1  1.4667E+06  0.0000E+00  6.3886E+06  7.8796E+06  0.0000E+00
   2  1.5831E+06  0.0000E+00  8.7756E+06  1.0363E+07  0.0000E+00

      CONNECTED LAKE   TIME-STEP         STAGE-CHANGE          PERCENT
 LAKE    INFLUX      SURFACE AREA   TIME STEP  CUMULATIVE    DISCREPANCY
   1   0.0000E+00     6.2500E+06   4.3102E-03 -1.3067E+01       0.000
   2   0.0000E+00     6.2500E+06   7.4528E-03 -1.8219E+01       0.000
 --------------------------------------------------------------------------------



            CUMULATIVE HYDROLOGIC BUDGET SUMMARIES FOR SIMULATED LAKES
     (ALL FLUID FLUXES ARE SUMS OF VOLUMES ADDED TO THE LAKE SINCE INITIAL TIME)
     ---------------------------------------------------------------------------
 LAKE       PRECIP       EVAP       RUNOFF
   1     2.8364E+07  2.5186E+07  0.0000E+00
   2     2.8364E+07  2.5186E+07  0.0000E+00

            GROUND WATER            SURFACE WATER
 LAKE    INFLOW     OUTFLOW      INFLOW     OUTFLOW
   1  4.8198E+07  1.5644E+06  3.4503E+08  4.7651E+08
   2  6.1275E+07  1.4259E+06  5.1154E+08  6.8843E+08

         WATER    CONNECTED LAKE   CHANGE       PERCENT
 LAKE     USE         INFLUX       IN VOL.    DISCREPANCY
   1   0.0000E+00   0.0000E+00  -8.1669E+07      0.000
   2   0.0000E+00   0.0000E+00  -1.1387E+08      0.000
 --------------------------------------------------------------------------------

 
 SOLVING FOR HEAD 
     6 ITERATIONS FOR TIME STEP  75 IN STRESS PERIOD    1

 HEAD/DRAWDOWN PRINTOUT FLAG = 0     TOTAL BUDGET PRINTOUT FLAG = 0
 CELL-BY-CELL FLOW TERM FLAG = 1

 OUTPUT FLAGS FOR ALL LAYERS ARE THE SAME:
   HEAD    DRAWDOWN  HEAD  DRAWDOWN
 PRINTOUT  PRINTOUT  SAVE    SAVE
 ----------------------------------
     0         0       0       0



 STREAM LISTING     PERIOD      1   STEP       75

 LAYER ROW COL. STREAM  RCH.  FLOW INTO     FLOW TO   FLOW OUT OF   OVRLND.     DIRECT     STREAM       STREAM     STREAM     STREAM   STREAMBED  STREAMBED
                SEG.NO.  NO.  STRM. RCH.    AQUIFER    STRM. RCH.    RUNOFF     PRECIP       ET          HEAD       DEPTH      WIDTH   CONDCTNC.   GRADIENT

   1    2    5     1     1    6.9120E+05 -7.9189E+04   7.7039E+05  0.000E+00  0.000E+00  0.000E+00  1.25330E+02  1.381E+00  5.000E+00  5.000E+03 -3.168E+01
   1    3    5     1     2    7.7039E+05 -5.3819E+04   8.2421E+05  0.000E+00  0.000E+00  0.000E+00  1.24300E+02  1.456E+00  5.000E+00  5.000E+03 -2.153E+01
   1    4    5     1     3    8.2421E+05 -4.7979E+04   8.7219E+05  0.000E+00  0.000E+00  0.000E+00  1.23252E+02  1.511E+00  5.000E+00  5.000E+03 -1.919E+01
   1    4    6     1     4    8.7219E+05 -3.9024E+04   9.1121E+05  0.000E+00  0.000E+00  0.000E+00  1.22195E+02  1.557E+00  5.000E+00  5.000E+03 -1.561E+01
   1    4    7     1     5    9.1121E+05 -1.9207E+04   9.3042E+05  0.000E+00  0.000E+00  0.000E+00  1.21397E+02  1.587E+00  5.000E+00  2.500E+03 -1.537E+01
   1    4    8     1     6    9.3042E+05 -3.1716E+04   9.6213E+05  0.000E+00  0.000E+00  0.000E+00  1.20734E+02  1.613E+00  5.000E+00  3.750E+03 -1.692E+01
   1    5    8     1     7    9.6213E+05 -3.1352E+04   9.9349E+05  0.000E+00  0.000E+00  0.000E+00  1.19800E+02  1.645E+00  5.000E+00  5.000E+03 -1.254E+01
   1    6    8     1     8    9.9349E+05 -2.0928E+04   1.0144E+06  0.000E+00  0.000E+00  0.000E+00  1.18723E+02  1.671E+00  5.000E+00  5.000E+03 -8.371E+00
   1   12    9     2     1    1.2536E+06 -2.1256E+04   1.2748E+06  0.000E+00  0.000E+00  0.000E+00  1.16537E+02  2.098E+00  5.000E+00  5.000E+03 -8.503E+00
   1   13    9     2     2    1.2748E+06 -3.2429E+04   1.3073E+06  0.000E+00  0.000E+00  0.000E+00  1.15743E+02  2.124E+00  5.000E+00  5.000E+03 -1.297E+01
   1   14   10     2     3    1.3073E+06 -1.7676E+04   1.3249E+06  0.000E+00  0.000E+00  0.000E+00  1.15128E+02  2.149E+00  5.000E+00  2.795E+03 -1.265E+01
   1   14   10     2     4    1.3249E+06 -1.8908E+04   1.3438E+06  0.000E+00  0.000E+00  0.000E+00  1.14687E+02  2.167E+00  5.000E+00  2.795E+03 -1.353E+01
   1   15   10     2     5    1.3438E+06 -3.1613E+04   1.3755E+06  0.000E+00  0.000E+00  0.000E+00  1.14072E+02  2.191E+00  5.000E+00  5.000E+03 -1.265E+01
   1   16   10     2     6    1.3755E+06 -2.1581E+04   1.3970E+06  0.000E+00  0.000E+00  0.000E+00  1.13277E+02  2.217E+00  5.000E+00  5.000E+03 -8.632E+00
   1   22   10     3     1    1.6517E+06 -2.3601E+04   1.6753E+06  0.000E+00  0.000E+00  0.000E+00  1.11326E+02  2.370E+00  5.000E+00  5.000E+03 -9.440E+00
   1   23   10     3     2    1.6753E+06 -3.4893E+04   1.7102E+06  0.000E+00  0.000E+00  0.000E+00  1.10523E+02  2.395E+00  5.000E+00  3.750E+03 -1.861E+01
   1   23   11     3     3    1.7102E+06 -2.1133E+04   1.7313E+06  0.000E+00  0.000E+00  0.000E+00  1.09956E+02  2.419E+00  5.000E+00  2.500E+03 -1.691E+01
   1   23   12     3     4    1.7313E+06 -4.2653E+04   1.7740E+06  0.000E+00  0.000E+00  0.000E+00  1.09273E+02  2.445E+00  5.000E+00  5.000E+03 -1.706E+01
   1   23   13     3     5    1.7740E+06 -4.6537E+04   1.8205E+06  0.000E+00  0.000E+00  0.000E+00  1.08364E+02  2.482E+00  5.000E+00  5.000E+03 -1.861E+01
   1   23   14     3     6    1.8205E+06 -5.1073E+04   1.8716E+06  0.000E+00  0.000E+00  0.000E+00  1.07459E+02  2.523E+00  5.000E+00  5.000E+03 -2.043E+01
   1   23   15     3     7    1.8716E+06 -5.9698E+04   1.9313E+06  0.000E+00  0.000E+00  0.000E+00  1.06558E+02  2.568E+00  5.000E+00  5.000E+03 -2.388E+01
   1   23   16     3     8    1.9313E+06 -8.9440E+04   2.0207E+06  0.000E+00  0.000E+00  0.000E+00  1.05672E+02  2.628E+00  5.000E+00  5.000E+03 -3.578E+01





     0  LAKE CELLS ARE DRY.

 PERIOD     1     TIME STEP    75     TIME STEP LENGTH  6.3382E+00
 PERIOD TIME  3.9757E+02     TOTAL SIMULATION TIME  3.9757E+02


                 HYDROLOGIC BUDGET SUMMARIES FOR SIMULATED LAKES
     (ALL FLUID FLUXES ARE VOLUMES ADDED TO THE LAKE DURING PRESENT TIME STEP)
     -------------------------------------------------------------------------
 LAKE    STAGE         VOLUME     VOL.CHANGE      PRECIP     EVAPORATION        RUNOFF
   1   116.9369     8.4605E+07    2.6152E+04    4.5952E+05    4.0802E+05    0.0000E+00
   2   111.7885     5.2427E+07    4.5272E+04    4.5952E+05    4.0802E+05    0.0000E+00

            GROUND WATER            SURFACE WATER        WATER
 LAKE    INFLOW     OUTFLOW      INFLOW     OUTFLOW       USE
   1  1.4905E+06  0.0000E+00  6.4296E+06  7.9454E+06  0.0000E+00
   2  1.6080E+06  0.0000E+00  8.8547E+06  1.0469E+07  0.0000E+00

      CONNECTED LAKE   TIME-STEP         STAGE-CHANGE          PERCENT
 LAKE    INFLUX      SURFACE AREA   TIME STEP  CUMULATIVE    DISCREPANCY
   1   0.0000E+00     6.2500E+06   4.1833E-03 -1.3063E+01       0.000
   2   0.0000E+00     6.2500E+06   7.2436E-03 -1.8211E+01       0.000
 --------------------------------------------------------------------------------



            CUMULATIVE HYDROLOGIC BUDGET SUMMARIES FOR SIMULATED LAKES
     (ALL FLUID FLUXES ARE SUMS OF VOLUMES ADDED TO THE LAKE SINCE INITIAL TIME)
     ---------------------------------------------------------------------------
 LAKE       PRECIP       EVAP       RUNOFF
   1     2.8824E+07  2.5594E+07  0.0000E+00
   2     2.8824E+07  2.5594E+07  0.0000E+00

            GROUND WATER            SURFACE WATER
 LAKE    INFLOW     OUTFLOW      INFLOW     OUTFLOW
   1  4.9688E+07  1.5644E+06  3.5146E+08  4.8445E+08
   2  6.2883E+07  1.4259E+06  5.2039E+08  6.9890E+08

         WATER    CONNECTED LAKE   CHANGE       PERCENT
 LAKE     USE         INFLUX       IN VOL.    DISCREPANCY
   1   0.0000E+00   0.0000E+00  -8.1643E+07      0.000
   2   0.0000E+00   0.0000E+00  -1.1382E+08      0.000
 --------------------------------------------------------------------------------

 
 SOLVING FOR HEAD 
     6 ITERATIONS FOR TIME STEP  76 IN STRESS PERIOD    1

 HEAD/DRAWDOWN PRINTOUT FLAG = 0     TOTAL BUDGET PRINTOUT FLAG = 0
 CELL-BY-CELL FLOW TERM FLAG = 1

 OUTPUT FLAGS FOR ALL LAYERS ARE THE SAME:
   HEAD    DRAWDOWN  HEAD  DRAWDOWN
 PRINTOUT  PRINTOUT  SAVE    SAVE
 ----------------------------------
     0         0       0       0



 STREAM LISTING     PERIOD      1   STEP       76

 LAYER ROW COL. STREAM  RCH.  FLOW INTO     FLOW TO   FLOW OUT OF   OVRLND.     DIRECT     STREAM       STREAM     STREAM     STREAM   STREAMBED  STREAMBED
                SEG.NO.  NO.  STRM. RCH.    AQUIFER    STRM. RCH.    RUNOFF     PRECIP       ET          HEAD       DEPTH      WIDTH   CONDCTNC.   GRADIENT

   1    2    5     1     1    6.9120E+05 -7.9234E+04   7.7043E+05  0.000E+00  0.000E+00  0.000E+00  1.25330E+02  1.381E+00  5.000E+00  5.000E+03 -3.169E+01
   1    3    5     1     2    7.7043E+05 -5.3952E+04   8.2439E+05  0.000E+00  0.000E+00  0.000E+00  1.24300E+02  1.456E+00  5.000E+00  5.000E+03 -2.158E+01
   1    4    5     1     3    8.2439E+05 -4.8260E+04   8.7265E+05  0.000E+00  0.000E+00  0.000E+00  1.23252E+02  1.511E+00  5.000E+00  5.000E+03 -1.930E+01
   1    4    6     1     4    8.7265E+05 -3.9243E+04   9.1189E+05  0.000E+00  0.000E+00  0.000E+00  1.22195E+02  1.557E+00  5.000E+00  5.000E+03 -1.570E+01
   1    4    7     1     5    9.1189E+05 -1.9303E+04   9.3119E+05  0.000E+00  0.000E+00  0.000E+00  1.21398E+02  1.588E+00  5.000E+00  2.500E+03 -1.544E+01
   1    4    8     1     6    9.3119E+05 -3.1868E+04   9.6306E+05  0.000E+00  0.000E+00  0.000E+00  1.20735E+02  1.614E+00  5.000E+00  3.750E+03 -1.700E+01
   1    5    8     1     7    9.6306E+05 -3.1604E+04   9.9466E+05  0.000E+00  0.000E+00  0.000E+00  1.19801E+02  1.646E+00  5.000E+00  5.000E+03 -1.264E+01
   1    6    8     1     8    9.9466E+05 -2.1127E+04   1.0158E+06  0.000E+00  0.000E+00  0.000E+00  1.18724E+02  1.673E+00  5.000E+00  5.000E+03 -8.451E+00
   1   12    9     2     1    1.2576E+06 -2.1458E+04   1.2791E+06  0.000E+00  0.000E+00  0.000E+00  1.16541E+02  2.102E+00  5.000E+00  5.000E+03 -8.583E+00
   1   13    9     2     2    1.2791E+06 -3.2770E+04   1.3118E+06  0.000E+00  0.000E+00  0.000E+00  1.15748E+02  2.129E+00  5.000E+00  5.000E+03 -1.311E+01
   1   14   10     2     3    1.3118E+06 -1.7854E+04   1.3297E+06  0.000E+00  0.000E+00  0.000E+00  1.15133E+02  2.153E+00  5.000E+00  2.795E+03 -1.278E+01
   1   14   10     2     4    1.3297E+06 -1.9086E+04   1.3488E+06  0.000E+00  0.000E+00  0.000E+00  1.14692E+02  2.171E+00  5.000E+00  2.795E+03 -1.366E+01
   1   15   10     2     5    1.3488E+06 -3.1909E+04   1.3807E+06  0.000E+00  0.000E+00  0.000E+00  1.14077E+02  2.196E+00  5.000E+00  5.000E+03 -1.276E+01
   1   16   10     2     6    1.3807E+06 -2.1765E+04   1.4025E+06  0.000E+00  0.000E+00  0.000E+00  1.13282E+02  2.222E+00  5.000E+00  5.000E+03 -8.706E+00
   1   22   10     3     1    1.6600E+06 -2.3769E+04   1.6837E+06  0.000E+00  0.000E+00  0.000E+00  1.11333E+02  2.377E+00  5.000E+00  5.000E+03 -9.508E+00
   1   23   10     3     2    1.6837E+06 -3.5125E+04   1.7189E+06  0.000E+00  0.000E+00  0.000E+00  1.10530E+02  2.402E+00  5.000E+00  3.750E+03 -1.873E+01
   1   23   11     3     3    1.7189E+06 -2.1250E+04   1.7401E+06  0.000E+00  0.000E+00  0.000E+00  1.09963E+02  2.426E+00  5.000E+00  2.500E+03 -1.700E+01
   1   23   12     3     4    1.7401E+06 -4.2853E+04   1.7830E+06  0.000E+00  0.000E+00  0.000E+00  1.09280E+02  2.453E+00  5.000E+00  5.000E+03 -1.714E+01
   1   23   13     3     5    1.7830E+06 -4.6725E+04   1.8297E+06  0.000E+00  0.000E+00  0.000E+00  1.08372E+02  2.490E+00  5.000E+00  5.000E+03 -1.869E+01
   1   23   14     3     6    1.8297E+06 -5.1229E+04   1.8809E+06  0.000E+00  0.000E+00  0.000E+00  1.07466E+02  2.530E+00  5.000E+00  5.000E+03 -2.049E+01
   1   23   15     3     7    1.8809E+06 -5.9797E+04   1.9407E+06  0.000E+00  0.000E+00  0.000E+00  1.06566E+02  2.575E+00  5.000E+00  5.000E+03 -2.392E+01
   1   23   16     3     8    1.9407E+06 -8.9469E+04   2.0302E+06  0.000E+00  0.000E+00  0.000E+00  1.05680E+02  2.635E+00  5.000E+00  5.000E+03 -3.579E+01





     0  LAKE CELLS ARE DRY.

 PERIOD     1     TIME STEP    76     TIME STEP LENGTH  6.3699E+00
 PERIOD TIME  4.0394E+02     TOTAL SIMULATION TIME  4.0394E+02


                 HYDROLOGIC BUDGET SUMMARIES FOR SIMULATED LAKES
     (ALL FLUID FLUXES ARE VOLUMES ADDED TO THE LAKE DURING PRESENT TIME STEP)
     -------------------------------------------------------------------------
 LAKE    STAGE         VOLUME     VOL.CHANGE      PRECIP     EVAPORATION        RUNOFF
   1   116.9410     8.4630E+07    2.5336E+04    4.6182E+05    4.1006E+05    0.0000E+00
   2   111.7956     5.2472E+07    4.4084E+04    4.6182E+05    4.1006E+05    0.0000E+00

            GROUND WATER            SURFACE WATER        WATER
 LAKE    INFLOW     OUTFLOW      INFLOW     OUTFLOW       USE
   1  1.5140E+06  0.0000E+00  6.4705E+06  8.0109E+06  0.0000E+00
   2  1.6327E+06  0.0000E+00  8.9336E+06  1.0574E+07  0.0000E+00

      CONNECTED LAKE   TIME-STEP         STAGE-CHANGE          PERCENT
 LAKE    INFLUX      SURFACE AREA   TIME STEP  CUMULATIVE    DISCREPANCY
   1   0.0000E+00     6.2500E+06   4.0546E-03 -1.3059E+01       0.000
   2   0.0000E+00     6.2500E+06   7.0536E-03 -1.8204E+01       0.000
 --------------------------------------------------------------------------------



            CUMULATIVE HYDROLOGIC BUDGET SUMMARIES FOR SIMULATED LAKES
     (ALL FLUID FLUXES ARE SUMS OF VOLUMES ADDED TO THE LAKE SINCE INITIAL TIME)
     ---------------------------------------------------------------------------
 LAKE       PRECIP       EVAP       RUNOFF
   1     2.9286E+07  2.6004E+07  0.0000E+00
   2     2.9286E+07  2.6004E+07  0.0000E+00

            GROUND WATER            SURFACE WATER
 LAKE    INFLOW     OUTFLOW      INFLOW     OUTFLOW
   1  5.1202E+07  1.5644E+06  3.5793E+08  4.9246E+08
   2  6.4516E+07  1.4259E+06  5.2933E+08  7.0948E+08

         WATER    CONNECTED LAKE   CHANGE       PERCENT
 LAKE     USE         INFLUX       IN VOL.    DISCREPANCY
   1   0.0000E+00   0.0000E+00  -8.1618E+07      0.000
   2   0.0000E+00   0.0000E+00  -1.1378E+08      0.000
 --------------------------------------------------------------------------------

 
 SOLVING FOR HEAD 
     6 ITERATIONS FOR TIME STEP  77 IN STRESS PERIOD    1

 HEAD/DRAWDOWN PRINTOUT FLAG = 0     TOTAL BUDGET PRINTOUT FLAG = 0
 CELL-BY-CELL FLOW TERM FLAG = 1

 OUTPUT FLAGS FOR ALL LAYERS ARE THE SAME:
   HEAD    DRAWDOWN  HEAD  DRAWDOWN
 PRINTOUT  PRINTOUT  SAVE    SAVE
 ----------------------------------
     0         0       0       0



 STREAM LISTING     PERIOD      1   STEP       77

 LAYER ROW COL. STREAM  RCH.  FLOW INTO     FLOW TO   FLOW OUT OF   OVRLND.     DIRECT     STREAM       STREAM     STREAM     STREAM   STREAMBED  STREAMBED
                SEG.NO.  NO.  STRM. RCH.    AQUIFER    STRM. RCH.    RUNOFF     PRECIP       ET          HEAD       DEPTH      WIDTH   CONDCTNC.   GRADIENT

   1    2    5     1     1    6.9120E+05 -7.9276E+04   7.7048E+05  0.000E+00  0.000E+00  0.000E+00  1.25330E+02  1.381E+00  5.000E+00  5.000E+03 -3.171E+01
   1    3    5     1     2    7.7048E+05 -5.4079E+04   8.2455E+05  0.000E+00  0.000E+00  0.000E+00  1.24301E+02  1.456E+00  5.000E+00  5.000E+03 -2.163E+01
   1    4    5     1     3    8.2455E+05 -4.8528E+04   8.7308E+05  0.000E+00  0.000E+00  0.000E+00  1.23253E+02  1.511E+00  5.000E+00  5.000E+03 -1.941E+01
   1    4    6     1     4    8.7308E+05 -3.9454E+04   9.1254E+05  0.000E+00  0.000E+00  0.000E+00  1.22196E+02  1.558E+00  5.000E+00  5.000E+03 -1.578E+01
   1    4    7     1     5    9.1254E+05 -1.9395E+04   9.3193E+05  0.000E+00  0.000E+00  0.000E+00  1.21399E+02  1.588E+00  5.000E+00  2.500E+03 -1.552E+01
   1    4    8     1     6    9.3193E+05 -3.2014E+04   9.6395E+05  0.000E+00  0.000E+00  0.000E+00  1.20736E+02  1.615E+00  5.000E+00  3.750E+03 -1.707E+01
   1    5    8     1     7    9.6395E+05 -3.1847E+04   9.9579E+05  0.000E+00  0.000E+00  0.000E+00  1.19802E+02  1.647E+00  5.000E+00  5.000E+03 -1.274E+01
   1    6    8     1     8    9.9579E+05 -2.1319E+04   1.0171E+06  0.000E+00  0.000E+00  0.000E+00  1.18726E+02  1.674E+00  5.000E+00  5.000E+03 -8.528E+00
   1   12    9     2     1    1.2615E+06 -2.1656E+04   1.2832E+06  0.000E+00  0.000E+00  0.000E+00  1.16545E+02  2.106E+00  5.000E+00  5.000E+03 -8.662E+00
   1   13    9     2     2    1.2832E+06 -3.3107E+04   1.3163E+06  0.000E+00  0.000E+00  0.000E+00  1.15752E+02  2.133E+00  5.000E+00  5.000E+03 -1.324E+01
   1   14   10     2     3    1.3163E+06 -1.8031E+04   1.3343E+06  0.000E+00  0.000E+00  0.000E+00  1.15137E+02  2.158E+00  5.000E+00  2.795E+03 -1.290E+01
   1   14   10     2     4    1.3343E+06 -1.9262E+04   1.3536E+06  0.000E+00  0.000E+00  0.000E+00  1.14697E+02  2.176E+00  5.000E+00  2.795E+03 -1.378E+01
   1   15   10     2     5    1.3536E+06 -3.2201E+04   1.3858E+06  0.000E+00  0.000E+00  0.000E+00  1.14082E+02  2.201E+00  5.000E+00  5.000E+03 -1.288E+01
   1   16   10     2     6    1.3858E+06 -2.1946E+04   1.4077E+06  0.000E+00  0.000E+00  0.000E+00  1.13287E+02  2.227E+00  5.000E+00  5.000E+03 -8.778E+00
   1   22   10     3     1    1.6680E+06 -2.3933E+04   1.6920E+06  0.000E+00  0.000E+00  0.000E+00  1.11340E+02  2.384E+00  5.000E+00  5.000E+03 -9.573E+00
   1   23   10     3     2    1.6920E+06 -3.5349E+04   1.7273E+06  0.000E+00  0.000E+00  0.000E+00  1.10537E+02  2.409E+00  5.000E+00  3.750E+03 -1.885E+01
   1   23   11     3     3    1.7273E+06 -2.1362E+04   1.7487E+06  0.000E+00  0.000E+00  0.000E+00  1.09970E+02  2.433E+00  5.000E+00  2.500E+03 -1.709E+01
   1   23   12     3     4    1.7487E+06 -4.3044E+04   1.7917E+06  0.000E+00  0.000E+00  0.000E+00  1.09288E+02  2.460E+00  5.000E+00  5.000E+03 -1.722E+01
   1   23   13     3     5    1.7917E+06 -4.6906E+04   1.8386E+06  0.000E+00  0.000E+00  0.000E+00  1.08379E+02  2.497E+00  5.000E+00  5.000E+03 -1.876E+01
   1   23   14     3     6    1.8386E+06 -5.1380E+04   1.8900E+06  0.000E+00  0.000E+00  0.000E+00  1.07474E+02  2.538E+00  5.000E+00  5.000E+03 -2.055E+01
   1   23   15     3     7    1.8900E+06 -5.9891E+04   1.9499E+06  0.000E+00  0.000E+00  0.000E+00  1.06573E+02  2.583E+00  5.000E+00  5.000E+03 -2.396E+01
   1   23   16     3     8    1.9499E+06 -8.9496E+04   2.0394E+06  0.000E+00  0.000E+00  0.000E+00  1.05687E+02  2.643E+00  5.000E+00  5.000E+03 -3.580E+01





     0  LAKE CELLS ARE DRY.

 PERIOD     1     TIME STEP    77     TIME STEP LENGTH  6.4018E+00
 PERIOD TIME  4.1034E+02     TOTAL SIMULATION TIME  4.1034E+02


                 HYDROLOGIC BUDGET SUMMARIES FOR SIMULATED LAKES
     (ALL FLUID FLUXES ARE VOLUMES ADDED TO THE LAKE DURING PRESENT TIME STEP)
     -------------------------------------------------------------------------
 LAKE    STAGE         VOLUME     VOL.CHANGE      PRECIP     EVAPORATION        RUNOFF
   1   116.9449     8.4655E+07    2.4528E+04    4.6413E+05    4.1211E+05    0.0000E+00
   2   111.8025     5.2514E+07    4.2964E+04    4.6413E+05    4.1211E+05    0.0000E+00

            GROUND WATER            SURFACE WATER        WATER
 LAKE    INFLOW     OUTFLOW      INFLOW     OUTFLOW       USE
   1  1.5372E+06  0.0000E+00  6.5113E+06  8.0760E+06  0.0000E+00
   2  1.6573E+06  0.0000E+00  9.0120E+06  1.0678E+07  0.0000E+00

      CONNECTED LAKE   TIME-STEP         STAGE-CHANGE          PERCENT
 LAKE    INFLUX      SURFACE AREA   TIME STEP  CUMULATIVE    DISCREPANCY
   1   0.0000E+00     6.2500E+06   3.9239E-03 -1.3055E+01       0.000
   2   0.0000E+00     6.2500E+06   6.8743E-03 -1.8198E+01       0.000
 --------------------------------------------------------------------------------



            CUMULATIVE HYDROLOGIC BUDGET SUMMARIES FOR SIMULATED LAKES
     (ALL FLUID FLUXES ARE SUMS OF VOLUMES ADDED TO THE LAKE SINCE INITIAL TIME)
     ---------------------------------------------------------------------------
 LAKE       PRECIP       EVAP       RUNOFF
   1     2.9750E+07  2.6416E+07  0.0000E+00
   2     2.9750E+07  2.6416E+07  0.0000E+00

            GROUND WATER            SURFACE WATER
 LAKE    INFLOW     OUTFLOW      INFLOW     OUTFLOW
   1  5.2739E+07  1.5644E+06  3.6444E+08  5.0054E+08
   2  6.6174E+07  1.4259E+06  5.3834E+08  7.2016E+08

         WATER    CONNECTED LAKE   CHANGE       PERCENT
 LAKE     USE         INFLUX       IN VOL.    DISCREPANCY
   1   0.0000E+00   0.0000E+00  -8.1593E+07      0.000
   2   0.0000E+00   0.0000E+00  -1.1373E+08      0.000
 --------------------------------------------------------------------------------

 
 SOLVING FOR HEAD 
     6 ITERATIONS FOR TIME STEP  78 IN STRESS PERIOD    1

 HEAD/DRAWDOWN PRINTOUT FLAG = 0     TOTAL BUDGET PRINTOUT FLAG = 0
 CELL-BY-CELL FLOW TERM FLAG = 1

 OUTPUT FLAGS FOR ALL LAYERS ARE THE SAME:
   HEAD    DRAWDOWN  HEAD  DRAWDOWN
 PRINTOUT  PRINTOUT  SAVE    SAVE
 ----------------------------------
     0         0       0       0



 STREAM LISTING     PERIOD      1   STEP       78

 LAYER ROW COL. STREAM  RCH.  FLOW INTO     FLOW TO   FLOW OUT OF   OVRLND.     DIRECT     STREAM       STREAM     STREAM     STREAM   STREAMBED  STREAMBED
                SEG.NO.  NO.  STRM. RCH.    AQUIFER    STRM. RCH.    RUNOFF     PRECIP       ET          HEAD       DEPTH      WIDTH   CONDCTNC.   GRADIENT

   1    2    5     1     1    6.9120E+05 -7.9316E+04   7.7052E+05  0.000E+00  0.000E+00  0.000E+00  1.25330E+02  1.382E+00  5.000E+00  5.000E+03 -3.173E+01
   1    3    5     1     2    7.7052E+05 -5.4199E+04   8.2472E+05  0.000E+00  0.000E+00  0.000E+00  1.24301E+02  1.456E+00  5.000E+00  5.000E+03 -2.168E+01
   1    4    5     1     3    8.2472E+05 -4.8783E+04   8.7350E+05  0.000E+00  0.000E+00  0.000E+00  1.23253E+02  1.512E+00  5.000E+00  5.000E+03 -1.951E+01
   1    4    6     1     4    8.7350E+05 -3.9656E+04   9.1316E+05  0.000E+00  0.000E+00  0.000E+00  1.22196E+02  1.558E+00  5.000E+00  5.000E+03 -1.586E+01
   1    4    7     1     5    9.1316E+05 -1.9484E+04   9.3264E+05  0.000E+00  0.000E+00  0.000E+00  1.21399E+02  1.589E+00  5.000E+00  2.500E+03 -1.559E+01
   1    4    8     1     6    9.3264E+05 -3.2153E+04   9.6479E+05  0.000E+00  0.000E+00  0.000E+00  1.20736E+02  1.616E+00  5.000E+00  3.750E+03 -1.715E+01
   1    5    8     1     7    9.6479E+05 -3.2081E+04   9.9687E+05  0.000E+00  0.000E+00  0.000E+00  1.19803E+02  1.648E+00  5.000E+00  5.000E+03 -1.283E+01
   1    6    8     1     8    9.9687E+05 -2.1505E+04   1.0184E+06  0.000E+00  0.000E+00  0.000E+00  1.18727E+02  1.675E+00  5.000E+00  5.000E+03 -8.602E+00
   1   12    9     2     1    1.2653E+06 -2.1852E+04   1.2872E+06  0.000E+00  0.000E+00  0.000E+00  1.16549E+02  2.110E+00  5.000E+00  5.000E+03 -8.741E+00
   1   13    9     2     2    1.2872E+06 -3.3440E+04   1.3206E+06  0.000E+00  0.000E+00  0.000E+00  1.15756E+02  2.137E+00  5.000E+00  5.000E+03 -1.338E+01
   1   14   10     2     3    1.3206E+06 -1.8205E+04   1.3388E+06  0.000E+00  0.000E+00  0.000E+00  1.15142E+02  2.162E+00  5.000E+00  2.795E+03 -1.303E+01
   1   14   10     2     4    1.3388E+06 -1.9436E+04   1.3582E+06  0.000E+00  0.000E+00  0.000E+00  1.14701E+02  2.180E+00  5.000E+00  2.795E+03 -1.391E+01
   1   15   10     2     5    1.3582E+06 -3.2490E+04   1.3907E+06  0.000E+00  0.000E+00  0.000E+00  1.14086E+02  2.206E+00  5.000E+00  5.000E+03 -1.300E+01
   1   16   10     2     6    1.3907E+06 -2.2125E+04   1.4129E+06  0.000E+00  0.000E+00  0.000E+00  1.13292E+02  2.232E+00  5.000E+00  5.000E+03 -8.850E+00
   1   22   10     3     1    1.6759E+06 -2.4094E+04   1.7000E+06  0.000E+00  0.000E+00  0.000E+00  1.11346E+02  2.391E+00  5.000E+00  5.000E+03 -9.637E+00
   1   23   10     3     2    1.7000E+06 -3.5565E+04   1.7355E+06  0.000E+00  0.000E+00  0.000E+00  1.10544E+02  2.416E+00  5.000E+00  3.750E+03 -1.897E+01
   1   23   11     3     3    1.7355E+06 -2.1471E+04   1.7570E+06  0.000E+00  0.000E+00  0.000E+00  1.09977E+02  2.440E+00  5.000E+00  2.500E+03 -1.718E+01
   1   23   12     3     4    1.7570E+06 -4.3228E+04   1.8002E+06  0.000E+00  0.000E+00  0.000E+00  1.09295E+02  2.467E+00  5.000E+00  5.000E+03 -1.729E+01
   1   23   13     3     5    1.8002E+06 -4.7080E+04   1.8473E+06  0.000E+00  0.000E+00  0.000E+00  1.08386E+02  2.504E+00  5.000E+00  5.000E+03 -1.883E+01
   1   23   14     3     6    1.8473E+06 -5.1524E+04   1.8988E+06  0.000E+00  0.000E+00  0.000E+00  1.07481E+02  2.545E+00  5.000E+00  5.000E+03 -2.061E+01
   1   23   15     3     7    1.8988E+06 -5.9982E+04   1.9588E+06  0.000E+00  0.000E+00  0.000E+00  1.06580E+02  2.590E+00  5.000E+00  5.000E+03 -2.399E+01
   1   23   16     3     8    1.9588E+06 -8.9521E+04   2.0483E+06  0.000E+00  0.000E+00  0.000E+00  1.05694E+02  2.650E+00  5.000E+00  5.000E+03 -3.581E+01





     0  LAKE CELLS ARE DRY.

 PERIOD     1     TIME STEP    78     TIME STEP LENGTH  6.4338E+00
 PERIOD TIME  4.1678E+02     TOTAL SIMULATION TIME  4.1678E+02


                 HYDROLOGIC BUDGET SUMMARIES FOR SIMULATED LAKES
     (ALL FLUID FLUXES ARE VOLUMES ADDED TO THE LAKE DURING PRESENT TIME STEP)
     -------------------------------------------------------------------------
 LAKE    STAGE         VOLUME     VOL.CHANGE      PRECIP     EVAPORATION        RUNOFF
   1   116.9487     8.4679E+07    2.3720E+04    4.6645E+05    4.1418E+05    0.0000E+00
   2   111.8092     5.2556E+07    4.1820E+04    4.6645E+05    4.1418E+05    0.0000E+00

            GROUND WATER            SURFACE WATER        WATER
 LAKE    INFLOW     OUTFLOW      INFLOW     OUTFLOW       USE
   1  1.5602E+06  0.0000E+00  6.5520E+06  8.1408E+06  0.0000E+00
   2  1.6817E+06  0.0000E+00  9.0901E+06  1.0782E+07  0.0000E+00

      CONNECTED LAKE   TIME-STEP         STAGE-CHANGE          PERCENT
 LAKE    INFLUX      SURFACE AREA   TIME STEP  CUMULATIVE    DISCREPANCY
   1   0.0000E+00     6.2500E+06   3.7945E-03 -1.3051E+01       0.000
   2   0.0000E+00     6.2500E+06   6.6916E-03 -1.8191E+01       0.000
 --------------------------------------------------------------------------------



            CUMULATIVE HYDROLOGIC BUDGET SUMMARIES FOR SIMULATED LAKES
     (ALL FLUID FLUXES ARE SUMS OF VOLUMES ADDED TO THE LAKE SINCE INITIAL TIME)
     ---------------------------------------------------------------------------
 LAKE       PRECIP       EVAP       RUNOFF
   1     3.0216E+07  2.6830E+07  0.0000E+00
   2     3.0216E+07  2.6830E+07  0.0000E+00

            GROUND WATER            SURFACE WATER
 LAKE    INFLOW     OUTFLOW      INFLOW     OUTFLOW
   1  5.4300E+07  1.5644E+06  3.7099E+08  5.0868E+08
   2  6.7855E+07  1.4259E+06  5.4743E+08  7.3094E+08

         WATER    CONNECTED LAKE   CHANGE       PERCENT
 LAKE     USE         INFLUX       IN VOL.    DISCREPANCY
   1   0.0000E+00   0.0000E+00  -8.1570E+07      0.000
   2   0.0000E+00   0.0000E+00  -1.1369E+08      0.000
 --------------------------------------------------------------------------------

 
 SOLVING FOR HEAD 
     6 ITERATIONS FOR TIME STEP  79 IN STRESS PERIOD    1

 HEAD/DRAWDOWN PRINTOUT FLAG = 0     TOTAL BUDGET PRINTOUT FLAG = 0
 CELL-BY-CELL FLOW TERM FLAG = 1

 OUTPUT FLAGS FOR ALL LAYERS ARE THE SAME:
   HEAD    DRAWDOWN  HEAD  DRAWDOWN
 PRINTOUT  PRINTOUT  SAVE    SAVE
 ----------------------------------
     0         0       0       0



 STREAM LISTING     PERIOD      1   STEP       79

 LAYER ROW COL. STREAM  RCH.  FLOW INTO     FLOW TO   FLOW OUT OF   OVRLND.     DIRECT     STREAM       STREAM     STREAM     STREAM   STREAMBED  STREAMBED
                SEG.NO.  NO.  STRM. RCH.    AQUIFER    STRM. RCH.    RUNOFF     PRECIP       ET          HEAD       DEPTH      WIDTH   CONDCTNC.   GRADIENT

   1    2    5     1     1    6.9120E+05 -7.9355E+04   7.7055E+05  0.000E+00  0.000E+00  0.000E+00  1.25330E+02  1.382E+00  5.000E+00  5.000E+03 -3.174E+01
   1    3    5     1     2    7.7055E+05 -5.4314E+04   8.2487E+05  0.000E+00  0.000E+00  0.000E+00  1.24301E+02  1.456E+00  5.000E+00  5.000E+03 -2.173E+01
   1    4    5     1     3    8.2487E+05 -4.9026E+04   8.7389E+05  0.000E+00  0.000E+00  0.000E+00  1.23253E+02  1.512E+00  5.000E+00  5.000E+03 -1.961E+01
   1    4    6     1     4    8.7389E+05 -3.9851E+04   9.1375E+05  0.000E+00  0.000E+00  0.000E+00  1.22197E+02  1.559E+00  5.000E+00  5.000E+03 -1.594E+01
   1    4    7     1     5    9.1375E+05 -1.9569E+04   9.3331E+05  0.000E+00  0.000E+00  0.000E+00  1.21400E+02  1.590E+00  5.000E+00  2.500E+03 -1.565E+01
   1    4    8     1     6    9.3331E+05 -3.2287E+04   9.6560E+05  0.000E+00  0.000E+00  0.000E+00  1.20737E+02  1.616E+00  5.000E+00  3.750E+03 -1.722E+01
   1    5    8     1     7    9.6560E+05 -3.2306E+04   9.9791E+05  0.000E+00  0.000E+00  0.000E+00  1.19804E+02  1.649E+00  5.000E+00  5.000E+03 -1.292E+01
   1    6    8     1     8    9.9791E+05 -2.1685E+04   1.0196E+06  0.000E+00  0.000E+00  0.000E+00  1.18728E+02  1.676E+00  5.000E+00  5.000E+03 -8.674E+00
   1   12    9     2     1    1.2690E+06 -2.2045E+04   1.2910E+06  0.000E+00  0.000E+00  0.000E+00  1.16553E+02  2.113E+00  5.000E+00  5.000E+03 -8.818E+00
   1   13    9     2     2    1.2910E+06 -3.3769E+04   1.3248E+06  0.000E+00  0.000E+00  0.000E+00  1.15760E+02  2.141E+00  5.000E+00  5.000E+03 -1.351E+01
   1   14   10     2     3    1.3248E+06 -1.8377E+04   1.3432E+06  0.000E+00  0.000E+00  0.000E+00  1.15146E+02  2.166E+00  5.000E+00  2.795E+03 -1.315E+01
   1   14   10     2     4    1.3432E+06 -1.9607E+04   1.3628E+06  0.000E+00  0.000E+00  0.000E+00  1.14705E+02  2.185E+00  5.000E+00  2.795E+03 -1.403E+01
   1   15   10     2     5    1.3628E+06 -3.2775E+04   1.3956E+06  0.000E+00  0.000E+00  0.000E+00  1.14091E+02  2.210E+00  5.000E+00  5.000E+03 -1.311E+01
   1   16   10     2     6    1.3956E+06 -2.2302E+04   1.4179E+06  0.000E+00  0.000E+00  0.000E+00  1.13297E+02  2.236E+00  5.000E+00  5.000E+03 -8.921E+00
   1   22   10     3     1    1.6835E+06 -2.4250E+04   1.7078E+06  0.000E+00  0.000E+00  0.000E+00  1.11353E+02  2.397E+00  5.000E+00  5.000E+03 -9.700E+00
   1   23   10     3     2    1.7078E+06 -3.5774E+04   1.7435E+06  0.000E+00  0.000E+00  0.000E+00  1.10551E+02  2.423E+00  5.000E+00  3.750E+03 -1.908E+01
   1   23   11     3     3    1.7435E+06 -2.1575E+04   1.7651E+06  0.000E+00  0.000E+00  0.000E+00  1.09984E+02  2.447E+00  5.000E+00  2.500E+03 -1.726E+01
   1   23   12     3     4    1.7651E+06 -4.3405E+04   1.8085E+06  0.000E+00  0.000E+00  0.000E+00  1.09301E+02  2.474E+00  5.000E+00  5.000E+03 -1.736E+01
   1   23   13     3     5    1.8085E+06 -4.7247E+04   1.8558E+06  0.000E+00  0.000E+00  0.000E+00  1.08393E+02  2.511E+00  5.000E+00  5.000E+03 -1.890E+01
   1   23   14     3     6    1.8558E+06 -5.1662E+04   1.9074E+06  0.000E+00  0.000E+00  0.000E+00  1.07488E+02  2.552E+00  5.000E+00  5.000E+03 -2.066E+01
   1   23   15     3     7    1.9074E+06 -6.0069E+04   1.9675E+06  0.000E+00  0.000E+00  0.000E+00  1.06587E+02  2.597E+00  5.000E+00  5.000E+03 -2.403E+01
   1   23   16     3     8    1.9675E+06 -8.9545E+04   2.0570E+06  0.000E+00  0.000E+00  0.000E+00  1.05701E+02  2.657E+00  5.000E+00  5.000E+03 -3.582E+01





     0  LAKE CELLS ARE DRY.

 PERIOD     1     TIME STEP    79     TIME STEP LENGTH  6.4660E+00
 PERIOD TIME  4.2324E+02     TOTAL SIMULATION TIME  4.2324E+02


                 HYDROLOGIC BUDGET SUMMARIES FOR SIMULATED LAKES
     (ALL FLUID FLUXES ARE VOLUMES ADDED TO THE LAKE DURING PRESENT TIME STEP)
     -------------------------------------------------------------------------
 LAKE    STAGE         VOLUME     VOL.CHANGE      PRECIP     EVAPORATION        RUNOFF
   1   116.9524     8.4701E+07    2.2768E+04    4.6878E+05    4.1625E+05    0.0000E+00
   2   111.8157     5.2597E+07    4.0732E+04    4.6878E+05    4.1625E+05    0.0000E+00

            GROUND WATER            SURFACE WATER        WATER
 LAKE    INFLOW     OUTFLOW      INFLOW     OUTFLOW       USE
   1  1.5828E+06  0.0000E+00  6.5926E+06  8.2052E+06  0.0000E+00
   2  1.7059E+06  0.0000E+00  9.1678E+06  1.0885E+07  0.0000E+00

      CONNECTED LAKE   TIME-STEP         STAGE-CHANGE          PERCENT
 LAKE    INFLUX      SURFACE AREA   TIME STEP  CUMULATIVE    DISCREPANCY
   1   0.0000E+00     6.2500E+06   3.6438E-03 -1.3048E+01       0.000
   2   0.0000E+00     6.2500E+06   6.5173E-03 -1.8184E+01       0.000
 --------------------------------------------------------------------------------



            CUMULATIVE HYDROLOGIC BUDGET SUMMARIES FOR SIMULATED LAKES
     (ALL FLUID FLUXES ARE SUMS OF VOLUMES ADDED TO THE LAKE SINCE INITIAL TIME)
     ---------------------------------------------------------------------------
 LAKE       PRECIP       EVAP       RUNOFF
   1     3.0685E+07  2.7246E+07  0.0000E+00
   2     3.0685E+07  2.7246E+07  0.0000E+00

            GROUND WATER            SURFACE WATER
 LAKE    INFLOW     OUTFLOW      INFLOW     OUTFLOW
   1  5.5882E+07  1.5644E+06  3.7758E+08  5.1689E+08
   2  6.9561E+07  1.4259E+06  5.5660E+08  7.4182E+08

         WATER    CONNECTED LAKE   CHANGE       PERCENT
 LAKE     USE         INFLUX       IN VOL.    DISCREPANCY
   1   0.0000E+00   0.0000E+00  -8.1547E+07      0.000
   2   0.0000E+00   0.0000E+00  -1.1365E+08      0.000
 --------------------------------------------------------------------------------

 
 SOLVING FOR HEAD 
     6 ITERATIONS FOR TIME STEP  80 IN STRESS PERIOD    1

 HEAD/DRAWDOWN PRINTOUT FLAG = 1     TOTAL BUDGET PRINTOUT FLAG = 1
 CELL-BY-CELL FLOW TERM FLAG = 1

 OUTPUT FLAGS FOR EACH LAYER:
          HEAD    DRAWDOWN  HEAD  DRAWDOWN
 LAYER  PRINTOUT  PRINTOUT  SAVE    SAVE
 -----------------------------------------
    1       0         0       0       0
    2       0         0       0       0
    3       0         0       0       0
    4       0         0       0       0
    5       1         0       0       0



 STREAM LISTING     PERIOD      1   STEP       80

 LAYER ROW COL. STREAM  RCH.  FLOW INTO     FLOW TO   FLOW OUT OF   OVRLND.     DIRECT     STREAM       STREAM     STREAM     STREAM   STREAMBED  STREAMBED
                SEG.NO.  NO.  STRM. RCH.    AQUIFER    STRM. RCH.    RUNOFF     PRECIP       ET          HEAD       DEPTH      WIDTH   CONDCTNC.   GRADIENT

   1    2    5     1     1    6.9120E+05 -7.9391E+04   7.7059E+05  0.000E+00  0.000E+00  0.000E+00  1.25330E+02  1.382E+00  5.000E+00  5.000E+03 -3.176E+01
   1    3    5     1     2    7.7059E+05 -5.4423E+04   8.2501E+05  0.000E+00  0.000E+00  0.000E+00  1.24301E+02  1.456E+00  5.000E+00  5.000E+03 -2.177E+01
   1    4    5     1     3    8.2501E+05 -4.9256E+04   8.7427E+05  0.000E+00  0.000E+00  0.000E+00  1.23254E+02  1.512E+00  5.000E+00  5.000E+03 -1.970E+01
   1    4    6     1     4    8.7427E+05 -4.0038E+04   9.1431E+05  0.000E+00  0.000E+00  0.000E+00  1.22197E+02  1.559E+00  5.000E+00  5.000E+03 -1.602E+01
   1    4    7     1     5    9.1431E+05 -1.9650E+04   9.3396E+05  0.000E+00  0.000E+00  0.000E+00  1.21401E+02  1.590E+00  5.000E+00  2.500E+03 -1.572E+01
   1    4    8     1     6    9.3396E+05 -3.2415E+04   9.6637E+05  0.000E+00  0.000E+00  0.000E+00  1.20738E+02  1.617E+00  5.000E+00  3.750E+03 -1.729E+01
   1    5    8     1     7    9.6637E+05 -3.2523E+04   9.9890E+05  0.000E+00  0.000E+00  0.000E+00  1.19805E+02  1.650E+00  5.000E+00  5.000E+03 -1.301E+01
   1    6    8     1     8    9.9890E+05 -2.1858E+04   1.0208E+06  0.000E+00  0.000E+00  0.000E+00  1.18729E+02  1.677E+00  5.000E+00  5.000E+03 -8.743E+00
   1   12    9     2     1    1.2725E+06 -2.2234E+04   1.2948E+06  0.000E+00  0.000E+00  0.000E+00  1.16557E+02  2.117E+00  5.000E+00  5.000E+03 -8.894E+00
   1   13    9     2     2    1.2948E+06 -3.4094E+04   1.3289E+06  0.000E+00  0.000E+00  0.000E+00  1.15764E+02  2.145E+00  5.000E+00  5.000E+03 -1.364E+01
   1   14   10     2     3    1.3289E+06 -1.8546E+04   1.3474E+06  0.000E+00  0.000E+00  0.000E+00  1.15150E+02  2.170E+00  5.000E+00  2.795E+03 -1.327E+01
   1   14   10     2     4    1.3474E+06 -1.9776E+04   1.3672E+06  0.000E+00  0.000E+00  0.000E+00  1.14710E+02  2.189E+00  5.000E+00  2.795E+03 -1.415E+01
   1   15   10     2     5    1.3672E+06 -3.3056E+04   1.4002E+06  0.000E+00  0.000E+00  0.000E+00  1.14095E+02  2.214E+00  5.000E+00  5.000E+03 -1.322E+01
   1   16   10     2     6    1.4002E+06 -2.2475E+04   1.4227E+06  0.000E+00  0.000E+00  0.000E+00  1.13301E+02  2.241E+00  5.000E+00  5.000E+03 -8.990E+00
   1   22   10     3     1    1.6909E+06 -2.4402E+04   1.7153E+06  0.000E+00  0.000E+00  0.000E+00  1.11359E+02  2.404E+00  5.000E+00  5.000E+03 -9.761E+00
   1   23   10     3     2    1.7153E+06 -3.5974E+04   1.7513E+06  0.000E+00  0.000E+00  0.000E+00  1.10557E+02  2.429E+00  5.000E+00  3.750E+03 -1.919E+01
   1   23   11     3     3    1.7513E+06 -2.1676E+04   1.7730E+06  0.000E+00  0.000E+00  0.000E+00  1.09990E+02  2.453E+00  5.000E+00  2.500E+03 -1.734E+01
   1   23   12     3     4    1.7730E+06 -4.3575E+04   1.8166E+06  0.000E+00  0.000E+00  0.000E+00  1.09308E+02  2.480E+00  5.000E+00  5.000E+03 -1.743E+01
   1   23   13     3     5    1.8166E+06 -4.7408E+04   1.8640E+06  0.000E+00  0.000E+00  0.000E+00  1.08400E+02  2.518E+00  5.000E+00  5.000E+03 -1.896E+01
   1   23   14     3     6    1.8640E+06 -5.1795E+04   1.9158E+06  0.000E+00  0.000E+00  0.000E+00  1.07494E+02  2.558E+00  5.000E+00  5.000E+03 -2.072E+01
   1   23   15     3     7    1.9158E+06 -6.0152E+04   1.9759E+06  0.000E+00  0.000E+00  0.000E+00  1.06594E+02  2.604E+00  5.000E+00  5.000E+03 -2.406E+01
   1   23   16     3     8    1.9759E+06 -8.9568E+04   2.0655E+06  0.000E+00  0.000E+00  0.000E+00  1.05708E+02  2.663E+00  5.000E+00  5.000E+03 -3.583E+01





     0  LAKE CELLS ARE DRY.

 PERIOD     1     TIME STEP    80     TIME STEP LENGTH  6.4983E+00
 PERIOD TIME  4.2974E+02     TOTAL SIMULATION TIME  4.2974E+02


                 HYDROLOGIC BUDGET SUMMARIES FOR SIMULATED LAKES
     (ALL FLUID FLUXES ARE VOLUMES ADDED TO THE LAKE DURING PRESENT TIME STEP)
     -------------------------------------------------------------------------
 LAKE    STAGE         VOLUME     VOL.CHANGE      PRECIP     EVAPORATION        RUNOFF
   1   116.9559     8.4723E+07    2.1880E+04    4.7113E+05    4.1833E+05    0.0000E+00
   2   111.8220     5.2637E+07    3.9640E+04    4.7113E+05    4.1833E+05    0.0000E+00

            GROUND WATER            SURFACE WATER        WATER
 LAKE    INFLOW     OUTFLOW      INFLOW     OUTFLOW       USE
   1  1.6052E+06  0.0000E+00  6.6332E+06  8.2693E+06  0.0000E+00
   2  1.7298E+06  0.0000E+00  9.2452E+06  1.0988E+07  0.0000E+00

      CONNECTED LAKE   TIME-STEP         STAGE-CHANGE          PERCENT
 LAKE    INFLUX      SURFACE AREA   TIME STEP  CUMULATIVE    DISCREPANCY
   1   0.0000E+00     6.2500E+06   3.4999E-03 -1.3044E+01       0.000
   2   0.0000E+00     6.2500E+06   6.3426E-03 -1.8178E+01       0.000
 --------------------------------------------------------------------------------



            CUMULATIVE HYDROLOGIC BUDGET SUMMARIES FOR SIMULATED LAKES
     (ALL FLUID FLUXES ARE SUMS OF VOLUMES ADDED TO THE LAKE SINCE INITIAL TIME)
     ---------------------------------------------------------------------------
 LAKE       PRECIP       EVAP       RUNOFF
   1     3.1156E+07  2.7665E+07  0.0000E+00
   2     3.1156E+07  2.7665E+07  0.0000E+00

            GROUND WATER            SURFACE WATER
 LAKE    INFLOW     OUTFLOW      INFLOW     OUTFLOW
   1  5.7488E+07  1.5644E+06  3.8422E+08  5.2516E+08
   2  7.1291E+07  1.4259E+06  5.6584E+08  7.5281E+08

         WATER    CONNECTED LAKE   CHANGE       PERCENT
 LAKE     USE         INFLUX       IN VOL.    DISCREPANCY
   1   0.0000E+00   0.0000E+00  -8.1525E+07      0.000
   2   0.0000E+00   0.0000E+00  -1.1361E+08      0.000
 --------------------------------------------------------------------------------

1
              HEAD IN LAYER   5 AT END OF TIME STEP  80 IN STRESS PERIOD    1
  ---------------------------------------------------------------------------

          1      2      3      4      5      6      7      8      9     10
 .........................................................................
   1   160.0  158.9  157.3  155.8  154.2  152.7  151.5  150.8  150.0  149.2
   2   160.0  158.1  155.1  150.9  141.2  146.5  147.0  146.9  146.6  146.3
   3   160.0  157.3  153.0  147.0  135.2  139.4  140.2  140.7  141.4  141.9
   4   160.0  156.9  152.1  145.6  133.1  130.2  129.3  129.4  134.3  136.9
   5   160.0  156.8  152.0  146.5  139.8  134.2  129.9  126.3  130.3  132.9
   6   160.0  156.8  151.9  146.9  141.1  133.8  127.0  123.1  125.1  127.0
   7   160.0  156.7  151.9  146.9  140.8  131.3  117.7  117.2  117.2  117.3
   8   160.0  156.7  151.9  146.8  140.6  130.5  117.4  117.0  117.0  117.0
   9   160.0  156.7  151.9  146.8  140.6  130.3  117.4  117.0  117.0  117.0
  10   160.0  156.7  151.9  146.9  140.7  130.6  117.4  117.0  117.0  117.0
  11   160.0  156.7  151.9  147.0  141.1  131.6  117.7  117.2  117.1  117.2
  12   160.0  156.7  151.9  147.2  141.8  134.7  128.0  124.5  121.0  123.6
  13   160.0  156.7  152.0  147.4  142.5  136.8  131.7  127.7  122.6  125.6
  14   160.0  156.7  152.0  147.4  142.7  137.5  132.9  129.6  125.9  121.8
  15   160.0  156.7  151.9  147.2  142.2  136.4  131.6  128.3  124.8  120.7
  16   160.0  156.7  151.8  146.8  141.1  133.2  126.1  122.9  120.4  117.8
  17   160.0  156.7  151.7  146.6  140.2  129.2  112.8  112.2  112.1  112.0
  18   160.0  156.7  151.7  146.5  139.8  128.0  112.3  111.8  111.8  111.8
  19   160.0  156.7  151.8  146.6  139.8  127.7  112.3  111.8  111.8  111.8
  20   160.0  156.7  151.9  146.8  140.2  128.3  112.4  111.9  111.8  111.8
  21   160.0  156.8  152.1  147.1  140.9  130.0  112.9  112.2  112.1  112.0
  22   160.0  156.9  152.4  147.9  142.6  135.1  127.7  124.0  120.6  116.3
  23   160.0  157.1  153.1  149.2  145.0  140.3  135.9  132.4  127.7  120.2
  24   160.0  157.4  153.9  150.6  147.4  144.1  141.5  139.6  137.6  135.6
  25   160.0  157.8  154.9  152.3  149.8  147.4  145.6  144.4  143.2  142.1
  26   160.0  158.4  156.2  154.2  152.3  150.5  149.1  148.2  147.3  146.5
  27   160.0  158.9  157.3  155.8  154.2  152.7  151.5  150.8  150.0  149.2
1
              HEAD IN LAYER   5 AT END OF TIME STEP  80 IN STRESS PERIOD    1
  ---------------------------------------------------------------------------

         11     12     13     14     15     16     17
 ....................................................
   1   148.5  147.3  145.8  144.2  142.7  141.1  140.0
   2   145.8  145.1  143.9  142.7  141.5  140.4  140.0
   3   142.1  142.2  141.6  140.9  140.3  139.9  140.0
   4   138.3  139.4  139.7  139.6  139.4  139.5  140.0
   5   134.8  136.8  138.0  138.5  138.8  139.3  140.0
   6   129.0  133.3  136.3  137.6  138.3  139.1  140.0
   7   117.7  129.6  135.1  137.1  138.1  139.0  140.0
   8   117.3  128.4  134.6  136.8  137.9  139.0  140.0
   9   117.3  127.9  134.3  136.7  137.9  138.9  140.0
  10   117.3  128.0  134.2  136.6  137.8  138.9  140.0
  11   117.6  128.7  134.4  136.6  137.8  138.9  140.0
  12   126.2  131.1  134.9  136.7  137.8  138.9  140.0
  13   128.5  132.5  135.3  136.8  137.8  138.9  140.0
  14   126.9  132.0  135.2  136.8  137.8  138.9  140.0
  15   125.5  130.8  134.6  136.5  137.7  138.9  140.0
  16   121.9  128.4  133.6  136.0  137.4  138.8  140.0
  17   112.5  125.2  132.5  135.4  137.0  138.6  140.0
  18   112.2  124.1  131.7  134.8  136.6  138.4  140.0
  19   112.2  123.3  131.0  134.2  136.1  138.1  140.0
  20   112.2  122.9  130.1  133.2  135.2  137.7  140.0
  21   112.4  122.6  128.9  131.8  133.9  136.8  140.0
  22   118.6  122.6  126.2  128.5  130.6  134.5  140.0
  23   118.7  118.0  117.9  117.9  118.7  123.7  140.0
  24   134.3  133.0  132.0  131.5  132.0  135.0  140.0
  25   141.1  139.9  138.6  137.8  137.5  138.4  140.0
  26   145.7  144.5  143.1  141.8  140.7  140.0  140.0
  27   148.5  147.3  145.8  144.2  142.7  141.1  140.0
1
  VOLUMETRIC BUDGET FOR ENTIRE MODEL AT END OF TIME STEP 80 IN STRESS PERIOD   1
  ------------------------------------------------------------------------------

     CUMULATIVE VOLUMES      L**3       RATES FOR THIS TIME STEP      L**3/T
     ------------------                 ------------------------

           IN:                                      IN:
           ---                                      ---
             STORAGE =     2934567.7500               STORAGE =           0.0000
       CONSTANT HEAD =   713432704.0000         CONSTANT HEAD =      658778.0000
                  ET =           0.0000                    ET =           0.0000
            RECHARGE =  1183934592.0000              RECHARGE =     2755000.0000
     SPECIFIED FLOWS =           0.0000       SPECIFIED FLOWS =           0.0000
      STREAM LEAKAGE =     3694574.2500        STREAM LEAKAGE =           0.0000
       LAKE  SEEPAGE =     2990331.7500         LAKE  SEEPAGE =           0.0000

            TOTAL IN =  1906986752.0000              TOTAL IN =     3413778.0000

          OUT:                                     OUT:
          ----                                     ----
             STORAGE =  1191108864.0000               STORAGE =      587594.5625
       CONSTANT HEAD =      184545.6094         CONSTANT HEAD =        1611.4120
                  ET =   326468544.0000                    ET =     1457073.8750
            RECHARGE =           0.0000              RECHARGE =           0.0000
     SPECIFIED FLOWS =           0.0000       SPECIFIED FLOWS =           0.0000
      STREAM LEAKAGE =   260443248.0000        STREAM LEAKAGE =      854286.0625
       LAKE  SEEPAGE =   128778456.0000         LAKE  SEEPAGE =      513220.2500

           TOTAL OUT =  1906983680.0000             TOTAL OUT =     3413786.2500

            IN - OUT =        3072.0000              IN - OUT =          -8.2500

 PERCENT DISCREPANCY =           0.00     PERCENT DISCREPANCY =           0.00






          TIME SUMMARY AT END OF TIME STEP  80 IN STRESS PERIOD    1
                    SECONDS     MINUTES      HOURS       DAYS        YEARS
                    -----------------------------------------------------------
   TIME STEP LENGTH 5.61452E+05  9357.5      155.96      6.4983     1.77913E-02
 STRESS PERIOD TIME 3.71296E+07 6.18826E+05  10314.      429.74      1.1766    
         TOTAL TIME 3.71296E+07 6.18826E+05  10314.      429.74      1.1766    
1
 
 SOLVING FOR HEAD 
     6 ITERATIONS FOR TIME STEP  81 IN STRESS PERIOD    1

 HEAD/DRAWDOWN PRINTOUT FLAG = 0     TOTAL BUDGET PRINTOUT FLAG = 0
 CELL-BY-CELL FLOW TERM FLAG = 1

 OUTPUT FLAGS FOR ALL LAYERS ARE THE SAME:
   HEAD    DRAWDOWN  HEAD  DRAWDOWN
 PRINTOUT  PRINTOUT  SAVE    SAVE
 ----------------------------------
     0         0       0       0



 STREAM LISTING     PERIOD      1   STEP       81

 LAYER ROW COL. STREAM  RCH.  FLOW INTO     FLOW TO   FLOW OUT OF   OVRLND.     DIRECT     STREAM       STREAM     STREAM     STREAM   STREAMBED  STREAMBED
                SEG.NO.  NO.  STRM. RCH.    AQUIFER    STRM. RCH.    RUNOFF     PRECIP       ET          HEAD       DEPTH      WIDTH   CONDCTNC.   GRADIENT

   1    2    5     1     1    6.9120E+05 -7.9425E+04   7.7063E+05  0.000E+00  0.000E+00  0.000E+00  1.25330E+02  1.382E+00  5.000E+00  5.000E+03 -3.177E+01
   1    3    5     1     2    7.7063E+05 -5.4526E+04   8.2515E+05  0.000E+00  0.000E+00  0.000E+00  1.24301E+02  1.456E+00  5.000E+00  5.000E+03 -2.181E+01
   1    4    5     1     3    8.2515E+05 -4.9474E+04   8.7463E+05  0.000E+00  0.000E+00  0.000E+00  1.23254E+02  1.512E+00  5.000E+00  5.000E+03 -1.979E+01
   1    4    6     1     4    8.7463E+05 -4.0216E+04   9.1484E+05  0.000E+00  0.000E+00  0.000E+00  1.22198E+02  1.560E+00  5.000E+00  5.000E+03 -1.609E+01
   1    4    7     1     5    9.1484E+05 -1.9729E+04   9.3457E+05  0.000E+00  0.000E+00  0.000E+00  1.21401E+02  1.591E+00  5.000E+00  2.500E+03 -1.578E+01
   1    4    8     1     6    9.3457E+05 -3.2538E+04   9.6711E+05  0.000E+00  0.000E+00  0.000E+00  1.20738E+02  1.618E+00  5.000E+00  3.750E+03 -1.735E+01
   1    5    8     1     7    9.6711E+05 -3.2731E+04   9.9984E+05  0.000E+00  0.000E+00  0.000E+00  1.19806E+02  1.651E+00  5.000E+00  5.000E+03 -1.309E+01
   1    6    8     1     8    9.9984E+05 -2.2026E+04   1.0219E+06  0.000E+00  0.000E+00  0.000E+00  1.18730E+02  1.678E+00  5.000E+00  5.000E+03 -8.810E+00
   1   12    9     2     1    1.2759E+06 -2.2421E+04   1.2984E+06  0.000E+00  0.000E+00  0.000E+00  1.16560E+02  2.120E+00  5.000E+00  5.000E+03 -8.968E+00
   1   13    9     2     2    1.2984E+06 -3.4414E+04   1.3328E+06  0.000E+00  0.000E+00  0.000E+00  1.15767E+02  2.148E+00  5.000E+00  5.000E+03 -1.377E+01
   1   14   10     2     3    1.3328E+06 -1.8713E+04   1.3515E+06  0.000E+00  0.000E+00  0.000E+00  1.15154E+02  2.174E+00  5.000E+00  2.795E+03 -1.339E+01
   1   14   10     2     4    1.3515E+06 -1.9942E+04   1.3714E+06  0.000E+00  0.000E+00  0.000E+00  1.14714E+02  2.193E+00  5.000E+00  2.795E+03 -1.427E+01
   1   15   10     2     5    1.3714E+06 -3.3333E+04   1.4048E+06  0.000E+00  0.000E+00  0.000E+00  1.14100E+02  2.219E+00  5.000E+00  5.000E+03 -1.333E+01
   1   16   10     2     6    1.4048E+06 -2.2646E+04   1.4274E+06  0.000E+00  0.000E+00  0.000E+00  1.13306E+02  2.245E+00  5.000E+00  5.000E+03 -9.058E+00
   1   22   10     3     1    1.6982E+06 -2.4549E+04   1.7227E+06  0.000E+00  0.000E+00  0.000E+00  1.11366E+02  2.410E+00  5.000E+00  5.000E+03 -9.820E+00
   1   23   10     3     2    1.7227E+06 -3.6167E+04   1.7589E+06  0.000E+00  0.000E+00  0.000E+00  1.10563E+02  2.435E+00  5.000E+00  3.750E+03 -1.929E+01
   1   23   11     3     3    1.7589E+06 -2.1772E+04   1.7806E+06  0.000E+00  0.000E+00  0.000E+00  1.09997E+02  2.460E+00  5.000E+00  2.500E+03 -1.742E+01
   1   23   12     3     4    1.7806E+06 -4.3738E+04   1.8244E+06  0.000E+00  0.000E+00  0.000E+00  1.09314E+02  2.487E+00  5.000E+00  5.000E+03 -1.750E+01
   1   23   13     3     5    1.8244E+06 -4.7562E+04   1.8719E+06  0.000E+00  0.000E+00  0.000E+00  1.08406E+02  2.524E+00  5.000E+00  5.000E+03 -1.902E+01
   1   23   14     3     6    1.8719E+06 -5.1923E+04   1.9239E+06  0.000E+00  0.000E+00  0.000E+00  1.07501E+02  2.565E+00  5.000E+00  5.000E+03 -2.077E+01
   1   23   15     3     7    1.9239E+06 -6.0232E+04   1.9841E+06  0.000E+00  0.000E+00  0.000E+00  1.06600E+02  2.610E+00  5.000E+00  5.000E+03 -2.409E+01
   1   23   16     3     8    1.9841E+06 -8.9590E+04   2.0737E+06  0.000E+00  0.000E+00  0.000E+00  1.05714E+02  2.670E+00  5.000E+00  5.000E+03 -3.584E+01





     0  LAKE CELLS ARE DRY.

 PERIOD     1     TIME STEP    81     TIME STEP LENGTH  6.5308E+00
 PERIOD TIME  4.3627E+02     TOTAL SIMULATION TIME  4.3627E+02


                 HYDROLOGIC BUDGET SUMMARIES FOR SIMULATED LAKES
     (ALL FLUID FLUXES ARE VOLUMES ADDED TO THE LAKE DURING PRESENT TIME STEP)
     -------------------------------------------------------------------------
 LAKE    STAGE         VOLUME     VOL.CHANGE      PRECIP     EVAPORATION        RUNOFF
   1   116.9592     8.4744E+07    2.1024E+04    4.7348E+05    4.2042E+05    0.0000E+00
   2   111.8282     5.2675E+07    3.8472E+04    4.7348E+05    4.2042E+05    0.0000E+00

            GROUND WATER            SURFACE WATER        WATER
 LAKE    INFLOW     OUTFLOW      INFLOW     OUTFLOW       USE
   1  1.6273E+06  0.0000E+00  6.6736E+06  8.3329E+06  0.0000E+00
   2  1.7536E+06  0.0000E+00  9.3221E+06  1.1090E+07  0.0000E+00

      CONNECTED LAKE   TIME-STEP         STAGE-CHANGE          PERCENT
 LAKE    INFLUX      SURFACE AREA   TIME STEP  CUMULATIVE    DISCREPANCY
   1   0.0000E+00     6.2500E+06   3.3640E-03 -1.3041E+01       0.000
   2   0.0000E+00     6.2500E+06   6.1555E-03 -1.8172E+01       0.000
 --------------------------------------------------------------------------------



            CUMULATIVE HYDROLOGIC BUDGET SUMMARIES FOR SIMULATED LAKES
     (ALL FLUID FLUXES ARE SUMS OF VOLUMES ADDED TO THE LAKE SINCE INITIAL TIME)
     ---------------------------------------------------------------------------
 LAKE       PRECIP       EVAP       RUNOFF
   1     3.1630E+07  2.8085E+07  0.0000E+00
   2     3.1630E+07  2.8085E+07  0.0000E+00

            GROUND WATER            SURFACE WATER
 LAKE    INFLOW     OUTFLOW      INFLOW     OUTFLOW
   1  5.9115E+07  1.5644E+06  3.9089E+08  5.3349E+08
   2  7.3044E+07  1.4259E+06  5.7516E+08  7.6390E+08

         WATER    CONNECTED LAKE   CHANGE       PERCENT
 LAKE     USE         INFLUX       IN VOL.    DISCREPANCY
   1   0.0000E+00   0.0000E+00  -8.1504E+07      0.000
   2   0.0000E+00   0.0000E+00  -1.1357E+08      0.000
 --------------------------------------------------------------------------------

 
 SOLVING FOR HEAD 
     6 ITERATIONS FOR TIME STEP  82 IN STRESS PERIOD    1

 HEAD/DRAWDOWN PRINTOUT FLAG = 0     TOTAL BUDGET PRINTOUT FLAG = 0
 CELL-BY-CELL FLOW TERM FLAG = 1

 OUTPUT FLAGS FOR ALL LAYERS ARE THE SAME:
   HEAD    DRAWDOWN  HEAD  DRAWDOWN
 PRINTOUT  PRINTOUT  SAVE    SAVE
 ----------------------------------
     0         0       0       0



 STREAM LISTING     PERIOD      1   STEP       82

 LAYER ROW COL. STREAM  RCH.  FLOW INTO     FLOW TO   FLOW OUT OF   OVRLND.     DIRECT     STREAM       STREAM     STREAM     STREAM   STREAMBED  STREAMBED
                SEG.NO.  NO.  STRM. RCH.    AQUIFER    STRM. RCH.    RUNOFF     PRECIP       ET          HEAD       DEPTH      WIDTH   CONDCTNC.   GRADIENT

   1    2    5     1     1    6.9120E+05 -7.9458E+04   7.7066E+05  0.000E+00  0.000E+00  0.000E+00  1.25330E+02  1.382E+00  5.000E+00  5.000E+03 -3.178E+01
   1    3    5     1     2    7.7066E+05 -5.4624E+04   8.2528E+05  0.000E+00  0.000E+00  0.000E+00  1.24301E+02  1.456E+00  5.000E+00  5.000E+03 -2.185E+01
   1    4    5     1     3    8.2528E+05 -4.9682E+04   8.7496E+05  0.000E+00  0.000E+00  0.000E+00  1.23254E+02  1.513E+00  5.000E+00  5.000E+03 -1.987E+01
   1    4    6     1     4    8.7496E+05 -4.0388E+04   9.1535E+05  0.000E+00  0.000E+00  0.000E+00  1.22198E+02  1.560E+00  5.000E+00  5.000E+03 -1.616E+01
   1    4    7     1     5    9.1535E+05 -1.9804E+04   9.3516E+05  0.000E+00  0.000E+00  0.000E+00  1.21402E+02  1.592E+00  5.000E+00  2.500E+03 -1.584E+01
   1    4    8     1     6    9.3516E+05 -3.2655E+04   9.6781E+05  0.000E+00  0.000E+00  0.000E+00  1.20739E+02  1.618E+00  5.000E+00  3.750E+03 -1.742E+01
   1    5    8     1     7    9.6781E+05 -3.2931E+04   1.0007E+06  0.000E+00  0.000E+00  0.000E+00  1.19807E+02  1.652E+00  5.000E+00  5.000E+03 -1.317E+01
   1    6    8     1     8    1.0007E+06 -2.2186E+04   1.0229E+06  0.000E+00  0.000E+00  0.000E+00  1.18731E+02  1.679E+00  5.000E+00  5.000E+03 -8.875E+00
   1   12    9     2     1    1.2792E+06 -2.2604E+04   1.3018E+06  0.000E+00  0.000E+00  0.000E+00  1.16563E+02  2.124E+00  5.000E+00  5.000E+03 -9.041E+00
   1   13    9     2     2    1.3018E+06 -3.4728E+04   1.3366E+06  0.000E+00  0.000E+00  0.000E+00  1.15771E+02  2.152E+00  5.000E+00  5.000E+03 -1.389E+01
   1   14   10     2     3    1.3366E+06 -1.8876E+04   1.3554E+06  0.000E+00  0.000E+00  0.000E+00  1.15157E+02  2.178E+00  5.000E+00  2.795E+03 -1.351E+01
   1   14   10     2     4    1.3554E+06 -2.0106E+04   1.3755E+06  0.000E+00  0.000E+00  0.000E+00  1.14717E+02  2.197E+00  5.000E+00  2.795E+03 -1.439E+01
   1   15   10     2     5    1.3755E+06 -3.3606E+04   1.4091E+06  0.000E+00  0.000E+00  0.000E+00  1.14104E+02  2.223E+00  5.000E+00  5.000E+03 -1.344E+01
   1   16   10     2     6    1.4091E+06 -2.2814E+04   1.4320E+06  0.000E+00  0.000E+00  0.000E+00  1.13310E+02  2.250E+00  5.000E+00  5.000E+03 -9.126E+00
   1   22   10     3     1    1.7052E+06 -2.4692E+04   1.7299E+06  0.000E+00  0.000E+00  0.000E+00  1.11372E+02  2.416E+00  5.000E+00  5.000E+03 -9.877E+00
   1   23   10     3     2    1.7299E+06 -3.6353E+04   1.7662E+06  0.000E+00  0.000E+00  0.000E+00  1.10570E+02  2.441E+00  5.000E+00  3.750E+03 -1.939E+01
   1   23   11     3     3    1.7662E+06 -2.1865E+04   1.7881E+06  0.000E+00  0.000E+00  0.000E+00  1.10003E+02  2.466E+00  5.000E+00  2.500E+03 -1.749E+01
   1   23   12     3     4    1.7881E+06 -4.3894E+04   1.8320E+06  0.000E+00  0.000E+00  0.000E+00  1.09321E+02  2.493E+00  5.000E+00  5.000E+03 -1.756E+01
   1   23   13     3     5    1.8320E+06 -4.7710E+04   1.8797E+06  0.000E+00  0.000E+00  0.000E+00  1.08413E+02  2.531E+00  5.000E+00  5.000E+03 -1.908E+01
   1   23   14     3     6    1.8797E+06 -5.2045E+04   1.9317E+06  0.000E+00  0.000E+00  0.000E+00  1.07507E+02  2.571E+00  5.000E+00  5.000E+03 -2.082E+01
   1   23   15     3     7    1.9317E+06 -6.0308E+04   1.9921E+06  0.000E+00  0.000E+00  0.000E+00  1.06607E+02  2.617E+00  5.000E+00  5.000E+03 -2.412E+01
   1   23   16     3     8    1.9921E+06 -8.9611E+04   2.0817E+06  0.000E+00  0.000E+00  0.000E+00  1.05720E+02  2.676E+00  5.000E+00  5.000E+03 -3.584E+01





     0  LAKE CELLS ARE DRY.

 PERIOD     1     TIME STEP    82     TIME STEP LENGTH  6.5634E+00
 PERIOD TIME  4.4283E+02     TOTAL SIMULATION TIME  4.4283E+02


                 HYDROLOGIC BUDGET SUMMARIES FOR SIMULATED LAKES
     (ALL FLUID FLUXES ARE VOLUMES ADDED TO THE LAKE DURING PRESENT TIME STEP)
     -------------------------------------------------------------------------
 LAKE    STAGE         VOLUME     VOL.CHANGE      PRECIP     EVAPORATION        RUNOFF
   1   116.9625     8.4765E+07    2.0232E+04    4.7585E+05    4.2252E+05    0.0000E+00
   2   111.8341     5.2712E+07    3.7048E+04    4.7585E+05    4.2252E+05    0.0000E+00

            GROUND WATER            SURFACE WATER        WATER
 LAKE    INFLOW     OUTFLOW      INFLOW     OUTFLOW       USE
   1  1.6491E+06  0.0000E+00  6.7139E+06  8.3961E+06  0.0000E+00
   2  1.7771E+06  0.0000E+00  9.3985E+06  1.1192E+07  0.0000E+00

      CONNECTED LAKE   TIME-STEP         STAGE-CHANGE          PERCENT
 LAKE    INFLUX      SURFACE AREA   TIME STEP  CUMULATIVE    DISCREPANCY
   1   0.0000E+00     6.2500E+06   3.2374E-03 -1.3038E+01       0.000
   2   0.0000E+00     6.2500E+06   5.9278E-03 -1.8166E+01       0.000
 --------------------------------------------------------------------------------



            CUMULATIVE HYDROLOGIC BUDGET SUMMARIES FOR SIMULATED LAKES
     (ALL FLUID FLUXES ARE SUMS OF VOLUMES ADDED TO THE LAKE SINCE INITIAL TIME)
     ---------------------------------------------------------------------------
 LAKE       PRECIP       EVAP       RUNOFF
   1     3.2106E+07  2.8507E+07  0.0000E+00
   2     3.2106E+07  2.8507E+07  0.0000E+00

            GROUND WATER            SURFACE WATER
 LAKE    INFLOW     OUTFLOW      INFLOW     OUTFLOW
   1  6.0764E+07  1.5644E+06  3.9760E+08  5.4188E+08
   2  7.4822E+07  1.4259E+06  5.8456E+08  7.7509E+08

         WATER    CONNECTED LAKE   CHANGE       PERCENT
 LAKE     USE         INFLUX       IN VOL.    DISCREPANCY
   1   0.0000E+00   0.0000E+00  -8.1484E+07      0.000
   2   0.0000E+00   0.0000E+00  -1.1354E+08      0.000
 --------------------------------------------------------------------------------

 
 SOLVING FOR HEAD 
     6 ITERATIONS FOR TIME STEP  83 IN STRESS PERIOD    1

 HEAD/DRAWDOWN PRINTOUT FLAG = 0     TOTAL BUDGET PRINTOUT FLAG = 0
 CELL-BY-CELL FLOW TERM FLAG = 1

 OUTPUT FLAGS FOR ALL LAYERS ARE THE SAME:
   HEAD    DRAWDOWN  HEAD  DRAWDOWN
 PRINTOUT  PRINTOUT  SAVE    SAVE
 ----------------------------------
     0         0       0       0



 STREAM LISTING     PERIOD      1   STEP       83

 LAYER ROW COL. STREAM  RCH.  FLOW INTO     FLOW TO   FLOW OUT OF   OVRLND.     DIRECT     STREAM       STREAM     STREAM     STREAM   STREAMBED  STREAMBED
                SEG.NO.  NO.  STRM. RCH.    AQUIFER    STRM. RCH.    RUNOFF     PRECIP       ET          HEAD       DEPTH      WIDTH   CONDCTNC.   GRADIENT

   1    2    5     1     1    6.9120E+05 -7.9489E+04   7.7069E+05  0.000E+00  0.000E+00  0.000E+00  1.25330E+02  1.382E+00  5.000E+00  5.000E+03 -3.180E+01
   1    3    5     1     2    7.7069E+05 -5.4718E+04   8.2541E+05  0.000E+00  0.000E+00  0.000E+00  1.24301E+02  1.456E+00  5.000E+00  5.000E+03 -2.189E+01
   1    4    5     1     3    8.2541E+05 -4.9878E+04   8.7528E+05  0.000E+00  0.000E+00  0.000E+00  1.23254E+02  1.513E+00  5.000E+00  5.000E+03 -1.995E+01
   1    4    6     1     4    8.7528E+05 -4.0551E+04   9.1584E+05  0.000E+00  0.000E+00  0.000E+00  1.22199E+02  1.561E+00  5.000E+00  5.000E+03 -1.622E+01
   1    4    7     1     5    9.1584E+05 -1.9876E+04   9.3571E+05  0.000E+00  0.000E+00  0.000E+00  1.21402E+02  1.592E+00  5.000E+00  2.500E+03 -1.590E+01
   1    4    8     1     6    9.3571E+05 -3.2768E+04   9.6848E+05  0.000E+00  0.000E+00  0.000E+00  1.20740E+02  1.619E+00  5.000E+00  3.750E+03 -1.748E+01
   1    5    8     1     7    9.6848E+05 -3.3124E+04   1.0016E+06  0.000E+00  0.000E+00  0.000E+00  1.19808E+02  1.652E+00  5.000E+00  5.000E+03 -1.325E+01
   1    6    8     1     8    1.0016E+06 -2.2341E+04   1.0239E+06  0.000E+00  0.000E+00  0.000E+00  1.18732E+02  1.680E+00  5.000E+00  5.000E+03 -8.936E+00
   1   12    9     2     1    1.2824E+06 -2.2783E+04   1.3052E+06  0.000E+00  0.000E+00  0.000E+00  1.16567E+02  2.127E+00  5.000E+00  5.000E+03 -9.113E+00
   1   13    9     2     2    1.3052E+06 -3.5037E+04   1.3402E+06  0.000E+00  0.000E+00  0.000E+00  1.15774E+02  2.155E+00  5.000E+00  5.000E+03 -1.401E+01
   1   14   10     2     3    1.3402E+06 -1.9037E+04   1.3592E+06  0.000E+00  0.000E+00  0.000E+00  1.15161E+02  2.182E+00  5.000E+00  2.795E+03 -1.362E+01
   1   14   10     2     4    1.3592E+06 -2.0266E+04   1.3795E+06  0.000E+00  0.000E+00  0.000E+00  1.14721E+02  2.201E+00  5.000E+00  2.795E+03 -1.450E+01
   1   15   10     2     5    1.3795E+06 -3.3874E+04   1.4134E+06  0.000E+00  0.000E+00  0.000E+00  1.14108E+02  2.227E+00  5.000E+00  5.000E+03 -1.355E+01
   1   16   10     2     6    1.4134E+06 -2.2979E+04   1.4364E+06  0.000E+00  0.000E+00  0.000E+00  1.13314E+02  2.254E+00  5.000E+00  5.000E+03 -9.192E+00
   1   22   10     3     1    1.7120E+06 -2.4831E+04   1.7368E+06  0.000E+00  0.000E+00  0.000E+00  1.11377E+02  2.422E+00  5.000E+00  5.000E+03 -9.932E+00
   1   23   10     3     2    1.7368E+06 -3.6532E+04   1.7734E+06  0.000E+00  0.000E+00  0.000E+00  1.10575E+02  2.447E+00  5.000E+00  3.750E+03 -1.948E+01
   1   23   11     3     3    1.7734E+06 -2.1954E+04   1.7953E+06  0.000E+00  0.000E+00  0.000E+00  1.10009E+02  2.472E+00  5.000E+00  2.500E+03 -1.756E+01
   1   23   12     3     4    1.7953E+06 -4.4044E+04   1.8394E+06  0.000E+00  0.000E+00  0.000E+00  1.09327E+02  2.499E+00  5.000E+00  5.000E+03 -1.762E+01
   1   23   13     3     5    1.8394E+06 -4.7853E+04   1.8872E+06  0.000E+00  0.000E+00  0.000E+00  1.08419E+02  2.537E+00  5.000E+00  5.000E+03 -1.914E+01
   1   23   14     3     6    1.8872E+06 -5.2163E+04   1.9394E+06  0.000E+00  0.000E+00  0.000E+00  1.07513E+02  2.577E+00  5.000E+00  5.000E+03 -2.087E+01
   1   23   15     3     7    1.9394E+06 -6.0381E+04   1.9997E+06  0.000E+00  0.000E+00  0.000E+00  1.06613E+02  2.623E+00  5.000E+00  5.000E+03 -2.415E+01
   1   23   16     3     8    1.9997E+06 -8.9631E+04   2.0894E+06  0.000E+00  0.000E+00  0.000E+00  1.05726E+02  2.682E+00  5.000E+00  5.000E+03 -3.585E+01





     0  LAKE CELLS ARE DRY.

 PERIOD     1     TIME STEP    83     TIME STEP LENGTH  6.5962E+00
 PERIOD TIME  4.4943E+02     TOTAL SIMULATION TIME  4.4943E+02


                 HYDROLOGIC BUDGET SUMMARIES FOR SIMULATED LAKES
     (ALL FLUID FLUXES ARE VOLUMES ADDED TO THE LAKE DURING PRESENT TIME STEP)
     -------------------------------------------------------------------------
 LAKE    STAGE         VOLUME     VOL.CHANGE      PRECIP     EVAPORATION        RUNOFF
   1   116.9656     8.4784E+07    1.9480E+04    4.7823E+05    4.2463E+05    0.0000E+00
   2   111.8398     5.2748E+07    3.5776E+04    4.7823E+05    4.2463E+05    0.0000E+00

            GROUND WATER            SURFACE WATER        WATER
 LAKE    INFLOW     OUTFLOW      INFLOW     OUTFLOW       USE
   1  1.6706E+06  0.0000E+00  6.7542E+06  8.4589E+06  0.0000E+00
   2  1.8003E+06  0.0000E+00  9.4746E+06  1.1293E+07  0.0000E+00

      CONNECTED LAKE   TIME-STEP         STAGE-CHANGE          PERCENT
 LAKE    INFLUX      SURFACE AREA   TIME STEP  CUMULATIVE    DISCREPANCY
   1   0.0000E+00     6.2500E+06   3.1161E-03 -1.3034E+01       0.000
   2   0.0000E+00     6.2500E+06   5.7243E-03 -1.8160E+01       0.000
 --------------------------------------------------------------------------------



            CUMULATIVE HYDROLOGIC BUDGET SUMMARIES FOR SIMULATED LAKES
     (ALL FLUID FLUXES ARE SUMS OF VOLUMES ADDED TO THE LAKE SINCE INITIAL TIME)
     ---------------------------------------------------------------------------
 LAKE       PRECIP       EVAP       RUNOFF
   1     3.2584E+07  2.8932E+07  0.0000E+00
   2     3.2584E+07  2.8932E+07  0.0000E+00

            GROUND WATER            SURFACE WATER
 LAKE    INFLOW     OUTFLOW      INFLOW     OUTFLOW
   1  6.2434E+07  1.5644E+06  4.0436E+08  5.5034E+08
   2  7.6622E+07  1.4259E+06  5.9404E+08  7.8639E+08

         WATER    CONNECTED LAKE   CHANGE       PERCENT
 LAKE     USE         INFLUX       IN VOL.    DISCREPANCY
   1   0.0000E+00   0.0000E+00  -8.1464E+07      0.000
   2   0.0000E+00   0.0000E+00  -1.1350E+08      0.000
 --------------------------------------------------------------------------------

 
 SOLVING FOR HEAD 
     6 ITERATIONS FOR TIME STEP  84 IN STRESS PERIOD    1

 HEAD/DRAWDOWN PRINTOUT FLAG = 0     TOTAL BUDGET PRINTOUT FLAG = 0
 CELL-BY-CELL FLOW TERM FLAG = 1

 OUTPUT FLAGS FOR ALL LAYERS ARE THE SAME:
   HEAD    DRAWDOWN  HEAD  DRAWDOWN
 PRINTOUT  PRINTOUT  SAVE    SAVE
 ----------------------------------
     0         0       0       0



 STREAM LISTING     PERIOD      1   STEP       84

 LAYER ROW COL. STREAM  RCH.  FLOW INTO     FLOW TO   FLOW OUT OF   OVRLND.     DIRECT     STREAM       STREAM     STREAM     STREAM   STREAMBED  STREAMBED
                SEG.NO.  NO.  STRM. RCH.    AQUIFER    STRM. RCH.    RUNOFF     PRECIP       ET          HEAD       DEPTH      WIDTH   CONDCTNC.   GRADIENT

   1    2    5     1     1    6.9120E+05 -7.9518E+04   7.7072E+05  0.000E+00  0.000E+00  0.000E+00  1.25330E+02  1.382E+00  5.000E+00  5.000E+03 -3.181E+01
   1    3    5     1     2    7.7072E+05 -5.4806E+04   8.2552E+05  0.000E+00  0.000E+00  0.000E+00  1.24301E+02  1.456E+00  5.000E+00  5.000E+03 -2.192E+01
   1    4    5     1     3    8.2552E+05 -5.0065E+04   8.7559E+05  0.000E+00  0.000E+00  0.000E+00  1.23255E+02  1.513E+00  5.000E+00  5.000E+03 -2.003E+01
   1    4    6     1     4    8.7559E+05 -4.0708E+04   9.1630E+05  0.000E+00  0.000E+00  0.000E+00  1.22199E+02  1.561E+00  5.000E+00  5.000E+03 -1.628E+01
   1    4    7     1     5    9.1630E+05 -1.9944E+04   9.3624E+05  0.000E+00  0.000E+00  0.000E+00  1.21403E+02  1.593E+00  5.000E+00  2.500E+03 -1.596E+01
   1    4    8     1     6    9.3624E+05 -3.2875E+04   9.6912E+05  0.000E+00  0.000E+00  0.000E+00  1.20740E+02  1.620E+00  5.000E+00  3.750E+03 -1.753E+01
   1    5    8     1     7    9.6912E+05 -3.3308E+04   1.0024E+06  0.000E+00  0.000E+00  0.000E+00  1.19808E+02  1.653E+00  5.000E+00  5.000E+03 -1.332E+01
   1    6    8     1     8    1.0024E+06 -2.2490E+04   1.0249E+06  0.000E+00  0.000E+00  0.000E+00  1.18733E+02  1.681E+00  5.000E+00  5.000E+03 -8.996E+00
   1   12    9     2     1    1.2854E+06 -2.2959E+04   1.3084E+06  0.000E+00  0.000E+00  0.000E+00  1.16570E+02  2.130E+00  5.000E+00  5.000E+03 -9.183E+00
   1   13    9     2     2    1.3084E+06 -3.5341E+04   1.3437E+06  0.000E+00  0.000E+00  0.000E+00  1.15778E+02  2.159E+00  5.000E+00  5.000E+03 -1.414E+01
   1   14   10     2     3    1.3437E+06 -1.9195E+04   1.3629E+06  0.000E+00  0.000E+00  0.000E+00  1.15164E+02  2.185E+00  5.000E+00  2.795E+03 -1.374E+01
   1   14   10     2     4    1.3629E+06 -2.0424E+04   1.3833E+06  0.000E+00  0.000E+00  0.000E+00  1.14725E+02  2.204E+00  5.000E+00  2.795E+03 -1.461E+01
   1   15   10     2     5    1.3833E+06 -3.4138E+04   1.4175E+06  0.000E+00  0.000E+00  0.000E+00  1.14111E+02  2.230E+00  5.000E+00  5.000E+03 -1.366E+01
   1   16   10     2     6    1.4175E+06 -2.3141E+04   1.4406E+06  0.000E+00  0.000E+00  0.000E+00  1.13318E+02  2.258E+00  5.000E+00  5.000E+03 -9.256E+00
   1   22   10     3     1    1.7186E+06 -2.4966E+04   1.7435E+06  0.000E+00  0.000E+00  0.000E+00  1.11383E+02  2.427E+00  5.000E+00  5.000E+03 -9.986E+00
   1   23   10     3     2    1.7435E+06 -3.6703E+04   1.7802E+06  0.000E+00  0.000E+00  0.000E+00  1.10581E+02  2.453E+00  5.000E+00  3.750E+03 -1.958E+01
   1   23   11     3     3    1.7802E+06 -2.2039E+04   1.8023E+06  0.000E+00  0.000E+00  0.000E+00  1.10014E+02  2.478E+00  5.000E+00  2.500E+03 -1.763E+01
   1   23   12     3     4    1.8023E+06 -4.4188E+04   1.8465E+06  0.000E+00  0.000E+00  0.000E+00  1.09332E+02  2.505E+00  5.000E+00  5.000E+03 -1.768E+01
   1   23   13     3     5    1.8465E+06 -4.7989E+04   1.8944E+06  0.000E+00  0.000E+00  0.000E+00  1.08424E+02  2.543E+00  5.000E+00  5.000E+03 -1.920E+01
   1   23   14     3     6    1.8944E+06 -5.2276E+04   1.9467E+06  0.000E+00  0.000E+00  0.000E+00  1.07519E+02  2.583E+00  5.000E+00  5.000E+03 -2.091E+01
   1   23   15     3     7    1.9467E+06 -6.0451E+04   2.0072E+06  0.000E+00  0.000E+00  0.000E+00  1.06619E+02  2.629E+00  5.000E+00  5.000E+03 -2.418E+01
   1   23   16     3     8    2.0072E+06 -8.9650E+04   2.0968E+06  0.000E+00  0.000E+00  0.000E+00  1.05732E+02  2.688E+00  5.000E+00  5.000E+03 -3.586E+01





     0  LAKE CELLS ARE DRY.

 PERIOD     1     TIME STEP    84     TIME STEP LENGTH  6.6292E+00
 PERIOD TIME  4.5606E+02     TOTAL SIMULATION TIME  4.5606E+02


                 HYDROLOGIC BUDGET SUMMARIES FOR SIMULATED LAKES
     (ALL FLUID FLUXES ARE VOLUMES ADDED TO THE LAKE DURING PRESENT TIME STEP)
     -------------------------------------------------------------------------
 LAKE    STAGE         VOLUME     VOL.CHANGE      PRECIP     EVAPORATION        RUNOFF
   1   116.9686     8.4803E+07    1.8704E+04    4.8062E+05    4.2676E+05    0.0000E+00
   2   111.8453     5.2783E+07    3.4560E+04    4.8062E+05    4.2676E+05    0.0000E+00

            GROUND WATER            SURFACE WATER        WATER
 LAKE    INFLOW     OUTFLOW      INFLOW     OUTFLOW       USE
   1  1.6917E+06  0.0000E+00  6.7944E+06  8.5213E+06  0.0000E+00
   2  1.8233E+06  0.0000E+00  9.5501E+06  1.1393E+07  0.0000E+00

      CONNECTED LAKE   TIME-STEP         STAGE-CHANGE          PERCENT
 LAKE    INFLUX      SURFACE AREA   TIME STEP  CUMULATIVE    DISCREPANCY
   1   0.0000E+00     6.2500E+06   2.9935E-03 -1.3031E+01       0.000
   2   0.0000E+00     6.2500E+06   5.5299E-03 -1.8155E+01       0.000
 --------------------------------------------------------------------------------



            CUMULATIVE HYDROLOGIC BUDGET SUMMARIES FOR SIMULATED LAKES
     (ALL FLUID FLUXES ARE SUMS OF VOLUMES ADDED TO THE LAKE SINCE INITIAL TIME)
     ---------------------------------------------------------------------------
 LAKE       PRECIP       EVAP       RUNOFF
   1     3.3064E+07  2.9359E+07  0.0000E+00
   2     3.3064E+07  2.9359E+07  0.0000E+00

            GROUND WATER            SURFACE WATER
 LAKE    INFLOW     OUTFLOW      INFLOW     OUTFLOW
   1  6.4126E+07  1.5644E+06  4.1115E+08  5.5886E+08
   2  7.8445E+07  1.4259E+06  6.0359E+08  7.9778E+08

         WATER    CONNECTED LAKE   CHANGE       PERCENT
 LAKE     USE         INFLUX       IN VOL.    DISCREPANCY
   1   0.0000E+00   0.0000E+00  -8.1446E+07      0.000
   2   0.0000E+00   0.0000E+00  -1.1347E+08      0.000
 --------------------------------------------------------------------------------

 
 SOLVING FOR HEAD 
     6 ITERATIONS FOR TIME STEP  85 IN STRESS PERIOD    1

 HEAD/DRAWDOWN PRINTOUT FLAG = 0     TOTAL BUDGET PRINTOUT FLAG = 0
 CELL-BY-CELL FLOW TERM FLAG = 1

 OUTPUT FLAGS FOR ALL LAYERS ARE THE SAME:
   HEAD    DRAWDOWN  HEAD  DRAWDOWN
 PRINTOUT  PRINTOUT  SAVE    SAVE
 ----------------------------------
     0         0       0       0



 STREAM LISTING     PERIOD      1   STEP       85

 LAYER ROW COL. STREAM  RCH.  FLOW INTO     FLOW TO   FLOW OUT OF   OVRLND.     DIRECT     STREAM       STREAM     STREAM     STREAM   STREAMBED  STREAMBED
                SEG.NO.  NO.  STRM. RCH.    AQUIFER    STRM. RCH.    RUNOFF     PRECIP       ET          HEAD       DEPTH      WIDTH   CONDCTNC.   GRADIENT

   1    2    5     1     1    6.9120E+05 -7.9546E+04   7.7075E+05  0.000E+00  0.000E+00  0.000E+00  1.25330E+02  1.382E+00  5.000E+00  5.000E+03 -3.182E+01
   1    3    5     1     2    7.7075E+05 -5.4890E+04   8.2564E+05  0.000E+00  0.000E+00  0.000E+00  1.24301E+02  1.457E+00  5.000E+00  5.000E+03 -2.196E+01
   1    4    5     1     3    8.2564E+05 -5.0242E+04   8.7588E+05  0.000E+00  0.000E+00  0.000E+00  1.23255E+02  1.513E+00  5.000E+00  5.000E+03 -2.010E+01
   1    4    6     1     4    8.7588E+05 -4.0858E+04   9.1674E+05  0.000E+00  0.000E+00  0.000E+00  1.22199E+02  1.561E+00  5.000E+00  5.000E+03 -1.634E+01
   1    4    7     1     5    9.1674E+05 -2.0010E+04   9.3675E+05  0.000E+00  0.000E+00  0.000E+00  1.21403E+02  1.593E+00  5.000E+00  2.500E+03 -1.601E+01
   1    4    8     1     6    9.3675E+05 -3.2978E+04   9.6972E+05  0.000E+00  0.000E+00  0.000E+00  1.20741E+02  1.620E+00  5.000E+00  3.750E+03 -1.759E+01
   1    5    8     1     7    9.6972E+05 -3.3485E+04   1.0032E+06  0.000E+00  0.000E+00  0.000E+00  1.19809E+02  1.654E+00  5.000E+00  5.000E+03 -1.339E+01
   1    6    8     1     8    1.0032E+06 -2.2632E+04   1.0258E+06  0.000E+00  0.000E+00  0.000E+00  1.18734E+02  1.682E+00  5.000E+00  5.000E+03 -9.053E+00
   1   12    9     2     1    1.2883E+06 -2.3130E+04   1.3115E+06  0.000E+00  0.000E+00  0.000E+00  1.16573E+02  2.133E+00  5.000E+00  5.000E+03 -9.252E+00
   1   13    9     2     2    1.3115E+06 -3.5638E+04   1.3471E+06  0.000E+00  0.000E+00  0.000E+00  1.15781E+02  2.162E+00  5.000E+00  5.000E+03 -1.426E+01
   1   14   10     2     3    1.3471E+06 -1.9350E+04   1.3664E+06  0.000E+00  0.000E+00  0.000E+00  1.15168E+02  2.188E+00  5.000E+00  2.795E+03 -1.385E+01
   1   14   10     2     4    1.3664E+06 -2.0578E+04   1.3870E+06  0.000E+00  0.000E+00  0.000E+00  1.14728E+02  2.208E+00  5.000E+00  2.795E+03 -1.472E+01
   1   15   10     2     5    1.3870E+06 -3.4396E+04   1.4214E+06  0.000E+00  0.000E+00  0.000E+00  1.14115E+02  2.234E+00  5.000E+00  5.000E+03 -1.376E+01
   1   16   10     2     6    1.4214E+06 -2.3299E+04   1.4447E+06  0.000E+00  0.000E+00  0.000E+00  1.13322E+02  2.261E+00  5.000E+00  5.000E+03 -9.320E+00
   1   22   10     3     1    1.7249E+06 -2.5096E+04   1.7500E+06  0.000E+00  0.000E+00  0.000E+00  1.11388E+02  2.433E+00  5.000E+00  5.000E+03 -1.004E+01
   1   23   10     3     2    1.7500E+06 -3.6868E+04   1.7869E+06  0.000E+00  0.000E+00  0.000E+00  1.10587E+02  2.459E+00  5.000E+00  3.750E+03 -1.966E+01
   1   23   11     3     3    1.7869E+06 -2.2121E+04   1.8090E+06  0.000E+00  0.000E+00  0.000E+00  1.10020E+02  2.483E+00  5.000E+00  2.500E+03 -1.770E+01
   1   23   12     3     4    1.8090E+06 -4.4326E+04   1.8533E+06  0.000E+00  0.000E+00  0.000E+00  1.09338E+02  2.511E+00  5.000E+00  5.000E+03 -1.773E+01
   1   23   13     3     5    1.8533E+06 -4.8121E+04   1.9014E+06  0.000E+00  0.000E+00  0.000E+00  1.08430E+02  2.548E+00  5.000E+00  5.000E+03 -1.925E+01
   1   23   14     3     6    1.9014E+06 -5.2384E+04   1.9538E+06  0.000E+00  0.000E+00  0.000E+00  1.07525E+02  2.589E+00  5.000E+00  5.000E+03 -2.095E+01
   1   23   15     3     7    1.9538E+06 -6.0518E+04   2.0143E+06  0.000E+00  0.000E+00  0.000E+00  1.06624E+02  2.634E+00  5.000E+00  5.000E+03 -2.421E+01
   1   23   16     3     8    2.0143E+06 -8.9668E+04   2.1040E+06  0.000E+00  0.000E+00  0.000E+00  1.05738E+02  2.694E+00  5.000E+00  5.000E+03 -3.587E+01





     0  LAKE CELLS ARE DRY.

 PERIOD     1     TIME STEP    85     TIME STEP LENGTH  6.6624E+00
 PERIOD TIME  4.6272E+02     TOTAL SIMULATION TIME  4.6272E+02


                 HYDROLOGIC BUDGET SUMMARIES FOR SIMULATED LAKES
     (ALL FLUID FLUXES ARE VOLUMES ADDED TO THE LAKE DURING PRESENT TIME STEP)
     -------------------------------------------------------------------------
 LAKE    STAGE         VOLUME     VOL.CHANGE      PRECIP     EVAPORATION        RUNOFF
   1   116.9715     8.4821E+07    1.8008E+04    4.8302E+05    4.2889E+05    0.0000E+00
   2   111.8507     5.2816E+07    3.3436E+04    4.8302E+05    4.2889E+05    0.0000E+00

            GROUND WATER            SURFACE WATER        WATER
 LAKE    INFLOW     OUTFLOW      INFLOW     OUTFLOW       USE
   1  1.7127E+06  0.0000E+00  6.8345E+06  8.5833E+06  0.0000E+00
   2  1.8461E+06  0.0000E+00  9.6253E+06  1.1492E+07  0.0000E+00

      CONNECTED LAKE   TIME-STEP         STAGE-CHANGE          PERCENT
 LAKE    INFLUX      SURFACE AREA   TIME STEP  CUMULATIVE    DISCREPANCY
   1   0.0000E+00     6.2500E+06   2.8806E-03 -1.3029E+01       0.000
   2   0.0000E+00     6.2500E+06   5.3495E-03 -1.8149E+01       0.000
 --------------------------------------------------------------------------------



            CUMULATIVE HYDROLOGIC BUDGET SUMMARIES FOR SIMULATED LAKES
     (ALL FLUID FLUXES ARE SUMS OF VOLUMES ADDED TO THE LAKE SINCE INITIAL TIME)
     ---------------------------------------------------------------------------
 LAKE       PRECIP       EVAP       RUNOFF
   1     3.3547E+07  2.9788E+07  0.0000E+00
   2     3.3547E+07  2.9788E+07  0.0000E+00

            GROUND WATER            SURFACE WATER
 LAKE    INFLOW     OUTFLOW      INFLOW     OUTFLOW
   1  6.5839E+07  1.5644E+06  4.1799E+08  5.6745E+08
   2  8.0291E+07  1.4259E+06  6.1321E+08  8.0927E+08

         WATER    CONNECTED LAKE   CHANGE       PERCENT
 LAKE     USE         INFLUX       IN VOL.    DISCREPANCY
   1   0.0000E+00   0.0000E+00  -8.1428E+07      0.000
   2   0.0000E+00   0.0000E+00  -1.1343E+08      0.000
 --------------------------------------------------------------------------------

 
 SOLVING FOR HEAD 
     6 ITERATIONS FOR TIME STEP  86 IN STRESS PERIOD    1

 HEAD/DRAWDOWN PRINTOUT FLAG = 0     TOTAL BUDGET PRINTOUT FLAG = 0
 CELL-BY-CELL FLOW TERM FLAG = 1

 OUTPUT FLAGS FOR ALL LAYERS ARE THE SAME:
   HEAD    DRAWDOWN  HEAD  DRAWDOWN
 PRINTOUT  PRINTOUT  SAVE    SAVE
 ----------------------------------
     0         0       0       0



 STREAM LISTING     PERIOD      1   STEP       86

 LAYER ROW COL. STREAM  RCH.  FLOW INTO     FLOW TO   FLOW OUT OF   OVRLND.     DIRECT     STREAM       STREAM     STREAM     STREAM   STREAMBED  STREAMBED
                SEG.NO.  NO.  STRM. RCH.    AQUIFER    STRM. RCH.    RUNOFF     PRECIP       ET          HEAD       DEPTH      WIDTH   CONDCTNC.   GRADIENT

   1    2    5     1     1    6.9120E+05 -7.9572E+04   7.7077E+05  0.000E+00  0.000E+00  0.000E+00  1.25330E+02  1.382E+00  5.000E+00  5.000E+03 -3.183E+01
   1    3    5     1     2    7.7077E+05 -5.4970E+04   8.2574E+05  0.000E+00  0.000E+00  0.000E+00  1.24301E+02  1.457E+00  5.000E+00  5.000E+03 -2.199E+01
   1    4    5     1     3    8.2574E+05 -5.0410E+04   8.7615E+05  0.000E+00  0.000E+00  0.000E+00  1.23255E+02  1.514E+00  5.000E+00  5.000E+03 -2.016E+01
   1    4    6     1     4    8.7615E+05 -4.1001E+04   9.1715E+05  0.000E+00  0.000E+00  0.000E+00  1.22200E+02  1.562E+00  5.000E+00  5.000E+03 -1.640E+01
   1    4    7     1     5    9.1715E+05 -2.0073E+04   9.3723E+05  0.000E+00  0.000E+00  0.000E+00  1.21404E+02  1.594E+00  5.000E+00  2.500E+03 -1.606E+01
   1    4    8     1     6    9.3723E+05 -3.3076E+04   9.7030E+05  0.000E+00  0.000E+00  0.000E+00  1.20741E+02  1.621E+00  5.000E+00  3.750E+03 -1.764E+01
   1    5    8     1     7    9.7030E+05 -3.3654E+04   1.0040E+06  0.000E+00  0.000E+00  0.000E+00  1.19810E+02  1.655E+00  5.000E+00  5.000E+03 -1.346E+01
   1    6    8     1     8    1.0040E+06 -2.2769E+04   1.0267E+06  0.000E+00  0.000E+00  0.000E+00  1.18734E+02  1.683E+00  5.000E+00  5.000E+03 -9.108E+00
   1   12    9     2     1    1.2911E+06 -2.3298E+04   1.3144E+06  0.000E+00  0.000E+00  0.000E+00  1.16575E+02  2.136E+00  5.000E+00  5.000E+03 -9.319E+00
   1   13    9     2     2    1.3144E+06 -3.5929E+04   1.3504E+06  0.000E+00  0.000E+00  0.000E+00  1.15784E+02  2.165E+00  5.000E+00  5.000E+03 -1.437E+01
   1   14   10     2     3    1.3504E+06 -1.9500E+04   1.3699E+06  0.000E+00  0.000E+00  0.000E+00  1.15171E+02  2.192E+00  5.000E+00  2.795E+03 -1.395E+01
   1   14   10     2     4    1.3699E+06 -2.0728E+04   1.3906E+06  0.000E+00  0.000E+00  0.000E+00  1.14732E+02  2.211E+00  5.000E+00  2.795E+03 -1.483E+01
   1   15   10     2     5    1.3906E+06 -3.4650E+04   1.4252E+06  0.000E+00  0.000E+00  0.000E+00  1.14119E+02  2.238E+00  5.000E+00  5.000E+03 -1.386E+01
   1   16   10     2     6    1.4252E+06 -2.3455E+04   1.4487E+06  0.000E+00  0.000E+00  0.000E+00  1.13325E+02  2.265E+00  5.000E+00  5.000E+03 -9.382E+00
   1   22   10     3     1    1.7311E+06 -2.5222E+04   1.7563E+06  0.000E+00  0.000E+00  0.000E+00  1.11394E+02  2.438E+00  5.000E+00  5.000E+03 -1.009E+01
   1   23   10     3     2    1.7563E+06 -3.7026E+04   1.7933E+06  0.000E+00  0.000E+00  0.000E+00  1.10592E+02  2.464E+00  5.000E+00  3.750E+03 -1.975E+01
   1   23   11     3     3    1.7933E+06 -2.2200E+04   1.8155E+06  0.000E+00  0.000E+00  0.000E+00  1.10025E+02  2.488E+00  5.000E+00  2.500E+03 -1.776E+01
   1   23   12     3     4    1.8155E+06 -4.4459E+04   1.8600E+06  0.000E+00  0.000E+00  0.000E+00  1.09344E+02  2.516E+00  5.000E+00  5.000E+03 -1.778E+01
   1   23   13     3     5    1.8600E+06 -4.8247E+04   1.9082E+06  0.000E+00  0.000E+00  0.000E+00  1.08436E+02  2.554E+00  5.000E+00  5.000E+03 -1.930E+01
   1   23   14     3     6    1.9082E+06 -5.2488E+04   1.9607E+06  0.000E+00  0.000E+00  0.000E+00  1.07531E+02  2.595E+00  5.000E+00  5.000E+03 -2.100E+01
   1   23   15     3     7    1.9607E+06 -6.0583E+04   2.0213E+06  0.000E+00  0.000E+00  0.000E+00  1.06630E+02  2.640E+00  5.000E+00  5.000E+03 -2.423E+01
   1   23   16     3     8    2.0213E+06 -8.9686E+04   2.1110E+06  0.000E+00  0.000E+00  0.000E+00  1.05743E+02  2.699E+00  5.000E+00  5.000E+03 -3.587E+01





     0  LAKE CELLS ARE DRY.

 PERIOD     1     TIME STEP    86     TIME STEP LENGTH  6.6957E+00
 PERIOD TIME  4.6942E+02     TOTAL SIMULATION TIME  4.6942E+02


                 HYDROLOGIC BUDGET SUMMARIES FOR SIMULATED LAKES
     (ALL FLUID FLUXES ARE VOLUMES ADDED TO THE LAKE DURING PRESENT TIME STEP)
     -------------------------------------------------------------------------
 LAKE    STAGE         VOLUME     VOL.CHANGE      PRECIP     EVAPORATION        RUNOFF
   1   116.9742     8.4838E+07    1.7296E+04    4.8544E+05    4.3103E+05    0.0000E+00
   2   111.8559     5.2848E+07    3.2320E+04    4.8544E+05    4.3103E+05    0.0000E+00

            GROUND WATER            SURFACE WATER        WATER
 LAKE    INFLOW     OUTFLOW      INFLOW     OUTFLOW       USE
   1  1.7333E+06  0.0000E+00  6.8746E+06  8.6450E+06  0.0000E+00
   2  1.8685E+06  0.0000E+00  9.7000E+06  1.1591E+07  0.0000E+00

      CONNECTED LAKE   TIME-STEP         STAGE-CHANGE          PERCENT
 LAKE    INFLUX      SURFACE AREA   TIME STEP  CUMULATIVE    DISCREPANCY
   1   0.0000E+00     6.2500E+06   2.7678E-03 -1.3026E+01       0.000
   2   0.0000E+00     6.2500E+06   5.1718E-03 -1.8144E+01       0.000
 --------------------------------------------------------------------------------



            CUMULATIVE HYDROLOGIC BUDGET SUMMARIES FOR SIMULATED LAKES
     (ALL FLUID FLUXES ARE SUMS OF VOLUMES ADDED TO THE LAKE SINCE INITIAL TIME)
     ---------------------------------------------------------------------------
 LAKE       PRECIP       EVAP       RUNOFF
   1     3.4033E+07  3.0219E+07  0.0000E+00
   2     3.4033E+07  3.0219E+07  0.0000E+00

            GROUND WATER            SURFACE WATER
 LAKE    INFLOW     OUTFLOW      INFLOW     OUTFLOW
   1  6.7572E+07  1.5644E+06  4.2486E+08  5.7609E+08
   2  8.2160E+07  1.4259E+06  6.2291E+08  8.2086E+08

         WATER    CONNECTED LAKE   CHANGE       PERCENT
 LAKE     USE         INFLUX       IN VOL.    DISCREPANCY
   1   0.0000E+00   0.0000E+00  -8.1410E+07      0.000
   2   0.0000E+00   0.0000E+00  -1.1340E+08      0.000
 --------------------------------------------------------------------------------

 
 SOLVING FOR HEAD 
     6 ITERATIONS FOR TIME STEP  87 IN STRESS PERIOD    1

 HEAD/DRAWDOWN PRINTOUT FLAG = 0     TOTAL BUDGET PRINTOUT FLAG = 0
 CELL-BY-CELL FLOW TERM FLAG = 1

 OUTPUT FLAGS FOR ALL LAYERS ARE THE SAME:
   HEAD    DRAWDOWN  HEAD  DRAWDOWN
 PRINTOUT  PRINTOUT  SAVE    SAVE
 ----------------------------------
     0         0       0       0



 STREAM LISTING     PERIOD      1   STEP       87

 LAYER ROW COL. STREAM  RCH.  FLOW INTO     FLOW TO   FLOW OUT OF   OVRLND.     DIRECT     STREAM       STREAM     STREAM     STREAM   STREAMBED  STREAMBED
                SEG.NO.  NO.  STRM. RCH.    AQUIFER    STRM. RCH.    RUNOFF     PRECIP       ET          HEAD       DEPTH      WIDTH   CONDCTNC.   GRADIENT

   1    2    5     1     1    6.9120E+05 -7.9597E+04   7.7080E+05  0.000E+00  0.000E+00  0.000E+00  1.25330E+02  1.382E+00  5.000E+00  5.000E+03 -3.184E+01
   1    3    5     1     2    7.7080E+05 -5.5046E+04   8.2584E+05  0.000E+00  0.000E+00  0.000E+00  1.24301E+02  1.457E+00  5.000E+00  5.000E+03 -2.202E+01
   1    4    5     1     3    8.2584E+05 -5.0569E+04   8.7641E+05  0.000E+00  0.000E+00  0.000E+00  1.23255E+02  1.514E+00  5.000E+00  5.000E+03 -2.023E+01
   1    4    6     1     4    8.7641E+05 -4.1137E+04   9.1755E+05  0.000E+00  0.000E+00  0.000E+00  1.22200E+02  1.562E+00  5.000E+00  5.000E+03 -1.645E+01
   1    4    7     1     5    9.1755E+05 -2.0133E+04   9.3768E+05  0.000E+00  0.000E+00  0.000E+00  1.21404E+02  1.594E+00  5.000E+00  2.500E+03 -1.611E+01
   1    4    8     1     6    9.3768E+05 -3.3170E+04   9.7085E+05  0.000E+00  0.000E+00  0.000E+00  1.20742E+02  1.621E+00  5.000E+00  3.750E+03 -1.769E+01
   1    5    8     1     7    9.7085E+05 -3.3816E+04   1.0047E+06  0.000E+00  0.000E+00  0.000E+00  1.19810E+02  1.655E+00  5.000E+00  5.000E+03 -1.353E+01
   1    6    8     1     8    1.0047E+06 -2.2900E+04   1.0276E+06  0.000E+00  0.000E+00  0.000E+00  1.18735E+02  1.684E+00  5.000E+00  5.000E+03 -9.160E+00
   1   12    9     2     1    1.2938E+06 -2.3462E+04   1.3173E+06  0.000E+00  0.000E+00  0.000E+00  1.16578E+02  2.138E+00  5.000E+00  5.000E+03 -9.385E+00
   1   13    9     2     2    1.3173E+06 -3.6213E+04   1.3535E+06  0.000E+00  0.000E+00  0.000E+00  1.15787E+02  2.168E+00  5.000E+00  5.000E+03 -1.449E+01
   1   14   10     2     3    1.3535E+06 -1.9648E+04   1.3731E+06  0.000E+00  0.000E+00  0.000E+00  1.15174E+02  2.195E+00  5.000E+00  2.795E+03 -1.406E+01
   1   14   10     2     4    1.3731E+06 -2.0875E+04   1.3940E+06  0.000E+00  0.000E+00  0.000E+00  1.14735E+02  2.214E+00  5.000E+00  2.795E+03 -1.494E+01
   1   15   10     2     5    1.3940E+06 -3.4898E+04   1.4289E+06  0.000E+00  0.000E+00  0.000E+00  1.14122E+02  2.241E+00  5.000E+00  5.000E+03 -1.396E+01
   1   16   10     2     6    1.4289E+06 -2.3607E+04   1.4525E+06  0.000E+00  0.000E+00  0.000E+00  1.13329E+02  2.269E+00  5.000E+00  5.000E+03 -9.443E+00
   1   22   10     3     1    1.7370E+06 -2.5343E+04   1.7623E+06  0.000E+00  0.000E+00  0.000E+00  1.11399E+02  2.443E+00  5.000E+00  5.000E+03 -1.014E+01
   1   23   10     3     2    1.7623E+06 -3.7178E+04   1.7995E+06  0.000E+00  0.000E+00  0.000E+00  1.10597E+02  2.469E+00  5.000E+00  3.750E+03 -1.983E+01
   1   23   11     3     3    1.7995E+06 -2.2276E+04   1.8218E+06  0.000E+00  0.000E+00  0.000E+00  1.10031E+02  2.494E+00  5.000E+00  2.500E+03 -1.782E+01
   1   23   12     3     4    1.8218E+06 -4.4586E+04   1.8664E+06  0.000E+00  0.000E+00  0.000E+00  1.09349E+02  2.521E+00  5.000E+00  5.000E+03 -1.783E+01
   1   23   13     3     5    1.8664E+06 -4.8367E+04   1.9147E+06  0.000E+00  0.000E+00  0.000E+00  1.08441E+02  2.559E+00  5.000E+00  5.000E+03 -1.935E+01
   1   23   14     3     6    1.9147E+06 -5.2587E+04   1.9673E+06  0.000E+00  0.000E+00  0.000E+00  1.07536E+02  2.600E+00  5.000E+00  5.000E+03 -2.103E+01
   1   23   15     3     7    1.9673E+06 -6.0644E+04   2.0280E+06  0.000E+00  0.000E+00  0.000E+00  1.06635E+02  2.645E+00  5.000E+00  5.000E+03 -2.426E+01
   1   23   16     3     8    2.0280E+06 -8.9702E+04   2.1177E+06  0.000E+00  0.000E+00  0.000E+00  1.05749E+02  2.704E+00  5.000E+00  5.000E+03 -3.588E+01





     0  LAKE CELLS ARE DRY.

 PERIOD     1     TIME STEP    87     TIME STEP LENGTH  6.7292E+00
 PERIOD TIME  4.7615E+02     TOTAL SIMULATION TIME  4.7615E+02


                 HYDROLOGIC BUDGET SUMMARIES FOR SIMULATED LAKES
     (ALL FLUID FLUXES ARE VOLUMES ADDED TO THE LAKE DURING PRESENT TIME STEP)
     -------------------------------------------------------------------------
 LAKE    STAGE         VOLUME     VOL.CHANGE      PRECIP     EVAPORATION        RUNOFF
   1   116.9769     8.4855E+07    1.6592E+04    4.8786E+05    4.3319E+05    0.0000E+00
   2   111.8609     5.2879E+07    3.1200E+04    4.8786E+05    4.3319E+05    0.0000E+00

            GROUND WATER            SURFACE WATER        WATER
 LAKE    INFLOW     OUTFLOW      INFLOW     OUTFLOW       USE
   1  1.7536E+06  0.0000E+00  6.9147E+06  8.7064E+06  0.0000E+00
   2  1.8907E+06  0.0000E+00  9.7743E+06  1.1689E+07  0.0000E+00

      CONNECTED LAKE   TIME-STEP         STAGE-CHANGE          PERCENT
 LAKE    INFLUX      SURFACE AREA   TIME STEP  CUMULATIVE    DISCREPANCY
   1   0.0000E+00     6.2500E+06   2.6549E-03 -1.3023E+01       0.000
   2   0.0000E+00     6.2500E+06   4.9918E-03 -1.8139E+01       0.000
 --------------------------------------------------------------------------------



            CUMULATIVE HYDROLOGIC BUDGET SUMMARIES FOR SIMULATED LAKES
     (ALL FLUID FLUXES ARE SUMS OF VOLUMES ADDED TO THE LAKE SINCE INITIAL TIME)
     ---------------------------------------------------------------------------
 LAKE       PRECIP       EVAP       RUNOFF
   1     3.4521E+07  3.0652E+07  0.0000E+00
   2     3.4521E+07  3.0652E+07  0.0000E+00

            GROUND WATER            SURFACE WATER
 LAKE    INFLOW     OUTFLOW      INFLOW     OUTFLOW
   1  6.9326E+07  1.5644E+06  4.3178E+08  5.8480E+08
   2  8.4051E+07  1.4259E+06  6.3269E+08  8.3255E+08

         WATER    CONNECTED LAKE   CHANGE       PERCENT
 LAKE     USE         INFLUX       IN VOL.    DISCREPANCY
   1   0.0000E+00   0.0000E+00  -8.1394E+07      0.000
   2   0.0000E+00   0.0000E+00  -1.1337E+08      0.000
 --------------------------------------------------------------------------------

 
 SOLVING FOR HEAD 
     6 ITERATIONS FOR TIME STEP  88 IN STRESS PERIOD    1

 HEAD/DRAWDOWN PRINTOUT FLAG = 0     TOTAL BUDGET PRINTOUT FLAG = 0
 CELL-BY-CELL FLOW TERM FLAG = 1

 OUTPUT FLAGS FOR ALL LAYERS ARE THE SAME:
   HEAD    DRAWDOWN  HEAD  DRAWDOWN
 PRINTOUT  PRINTOUT  SAVE    SAVE
 ----------------------------------
     0         0       0       0



 STREAM LISTING     PERIOD      1   STEP       88

 LAYER ROW COL. STREAM  RCH.  FLOW INTO     FLOW TO   FLOW OUT OF   OVRLND.     DIRECT     STREAM       STREAM     STREAM     STREAM   STREAMBED  STREAMBED
                SEG.NO.  NO.  STRM. RCH.    AQUIFER    STRM. RCH.    RUNOFF     PRECIP       ET          HEAD       DEPTH      WIDTH   CONDCTNC.   GRADIENT

   1    2    5     1     1    6.9120E+05 -7.9621E+04   7.7082E+05  0.000E+00  0.000E+00  0.000E+00  1.25330E+02  1.382E+00  5.000E+00  5.000E+03 -3.185E+01
   1    3    5     1     2    7.7082E+05 -5.5117E+04   8.2594E+05  0.000E+00  0.000E+00  0.000E+00  1.24302E+02  1.457E+00  5.000E+00  5.000E+03 -2.205E+01
   1    4    5     1     3    8.2594E+05 -5.0720E+04   8.7666E+05  0.000E+00  0.000E+00  0.000E+00  1.23255E+02  1.514E+00  5.000E+00  5.000E+03 -2.029E+01
   1    4    6     1     4    8.7666E+05 -4.1267E+04   9.1793E+05  0.000E+00  0.000E+00  0.000E+00  1.22200E+02  1.562E+00  5.000E+00  5.000E+03 -1.651E+01
   1    4    7     1     5    9.1793E+05 -2.0191E+04   9.3812E+05  0.000E+00  0.000E+00  0.000E+00  1.21405E+02  1.594E+00  5.000E+00  2.500E+03 -1.615E+01
   1    4    8     1     6    9.3812E+05 -3.3259E+04   9.7138E+05  0.000E+00  0.000E+00  0.000E+00  1.20742E+02  1.622E+00  5.000E+00  3.750E+03 -1.774E+01
   1    5    8     1     7    9.7138E+05 -3.3970E+04   1.0053E+06  0.000E+00  0.000E+00  0.000E+00  1.19811E+02  1.656E+00  5.000E+00  5.000E+03 -1.359E+01
   1    6    8     1     8    1.0053E+06 -2.3026E+04   1.0284E+06  0.000E+00  0.000E+00  0.000E+00  1.18736E+02  1.684E+00  5.000E+00  5.000E+03 -9.210E+00
   1   12    9     2     1    1.2964E+06 -2.3622E+04   1.3200E+06  0.000E+00  0.000E+00  0.000E+00  1.16581E+02  2.141E+00  5.000E+00  5.000E+03 -9.449E+00
   1   13    9     2     2    1.3200E+06 -3.6490E+04   1.3565E+06  0.000E+00  0.000E+00  0.000E+00  1.15790E+02  2.170E+00  5.000E+00  5.000E+03 -1.460E+01
   1   14   10     2     3    1.3565E+06 -1.9791E+04   1.3763E+06  0.000E+00  0.000E+00  0.000E+00  1.15177E+02  2.198E+00  5.000E+00  2.795E+03 -1.416E+01
   1   14   10     2     4    1.3763E+06 -2.1018E+04   1.3973E+06  0.000E+00  0.000E+00  0.000E+00  1.14738E+02  2.217E+00  5.000E+00  2.795E+03 -1.504E+01
   1   15   10     2     5    1.3973E+06 -3.5141E+04   1.4325E+06  0.000E+00  0.000E+00  0.000E+00  1.14125E+02  2.244E+00  5.000E+00  5.000E+03 -1.406E+01
   1   16   10     2     6    1.4325E+06 -2.3755E+04   1.4562E+06  0.000E+00  0.000E+00  0.000E+00  1.13332E+02  2.272E+00  5.000E+00  5.000E+03 -9.502E+00
   1   22   10     3     1    1.7427E+06 -2.5460E+04   1.7682E+06  0.000E+00  0.000E+00  0.000E+00  1.11403E+02  2.448E+00  5.000E+00  5.000E+03 -1.018E+01
   1   23   10     3     2    1.7682E+06 -3.7323E+04   1.8055E+06  0.000E+00  0.000E+00  0.000E+00  1.10602E+02  2.474E+00  5.000E+00  3.750E+03 -1.991E+01
   1   23   11     3     3    1.8055E+06 -2.2348E+04   1.8279E+06  0.000E+00  0.000E+00  0.000E+00  1.10036E+02  2.499E+00  5.000E+00  2.500E+03 -1.788E+01
   1   23   12     3     4    1.8279E+06 -4.4708E+04   1.8726E+06  0.000E+00  0.000E+00  0.000E+00  1.09354E+02  2.526E+00  5.000E+00  5.000E+03 -1.788E+01
   1   23   13     3     5    1.8726E+06 -4.8483E+04   1.9210E+06  0.000E+00  0.000E+00  0.000E+00  1.08446E+02  2.564E+00  5.000E+00  5.000E+03 -1.939E+01
   1   23   14     3     6    1.9210E+06 -5.2683E+04   1.9737E+06  0.000E+00  0.000E+00  0.000E+00  1.07541E+02  2.605E+00  5.000E+00  5.000E+03 -2.107E+01
   1   23   15     3     7    1.9737E+06 -6.0703E+04   2.0344E+06  0.000E+00  0.000E+00  0.000E+00  1.06640E+02  2.650E+00  5.000E+00  5.000E+03 -2.428E+01
   1   23   16     3     8    2.0344E+06 -8.9718E+04   2.1241E+06  0.000E+00  0.000E+00  0.000E+00  1.05754E+02  2.709E+00  5.000E+00  5.000E+03 -3.589E+01





     0  LAKE CELLS ARE DRY.

 PERIOD     1     TIME STEP    88     TIME STEP LENGTH  6.7628E+00
 PERIOD TIME  4.8291E+02     TOTAL SIMULATION TIME  4.8291E+02


                 HYDROLOGIC BUDGET SUMMARIES FOR SIMULATED LAKES
     (ALL FLUID FLUXES ARE VOLUMES ADDED TO THE LAKE DURING PRESENT TIME STEP)
     -------------------------------------------------------------------------
 LAKE    STAGE         VOLUME     VOL.CHANGE      PRECIP     EVAPORATION        RUNOFF
   1   116.9794     8.4871E+07    1.5952E+04    4.9030E+05    4.3536E+05    0.0000E+00
   2   111.8657     5.2910E+07    3.0148E+04    4.9030E+05    4.3536E+05    0.0000E+00

            GROUND WATER            SURFACE WATER        WATER
 LAKE    INFLOW     OUTFLOW      INFLOW     OUTFLOW       USE
   1  1.7737E+06  0.0000E+00  6.9547E+06  8.7674E+06  0.0000E+00
   2  1.9127E+06  0.0000E+00  9.8482E+06  1.1786E+07  0.0000E+00

      CONNECTED LAKE   TIME-STEP         STAGE-CHANGE          PERCENT
 LAKE    INFLUX      SURFACE AREA   TIME STEP  CUMULATIVE    DISCREPANCY
   1   0.0000E+00     6.2500E+06   2.5513E-03 -1.3021E+01       0.000
   2   0.0000E+00     6.2500E+06   4.8237E-03 -1.8134E+01       0.000
 --------------------------------------------------------------------------------



            CUMULATIVE HYDROLOGIC BUDGET SUMMARIES FOR SIMULATED LAKES
     (ALL FLUID FLUXES ARE SUMS OF VOLUMES ADDED TO THE LAKE SINCE INITIAL TIME)
     ---------------------------------------------------------------------------
 LAKE       PRECIP       EVAP       RUNOFF
   1     3.5011E+07  3.1087E+07  0.0000E+00
   2     3.5011E+07  3.1087E+07  0.0000E+00

            GROUND WATER            SURFACE WATER
 LAKE    INFLOW     OUTFLOW      INFLOW     OUTFLOW
   1  7.1099E+07  1.5644E+06  4.3873E+08  5.9357E+08
   2  8.5963E+07  1.4259E+06  6.4254E+08  8.4434E+08

         WATER    CONNECTED LAKE   CHANGE       PERCENT
 LAKE     USE         INFLUX       IN VOL.    DISCREPANCY
   1   0.0000E+00   0.0000E+00  -8.1378E+07      0.000
   2   0.0000E+00   0.0000E+00  -1.1334E+08      0.000
 --------------------------------------------------------------------------------

 
 SOLVING FOR HEAD 
     6 ITERATIONS FOR TIME STEP  89 IN STRESS PERIOD    1

 HEAD/DRAWDOWN PRINTOUT FLAG = 0     TOTAL BUDGET PRINTOUT FLAG = 0
 CELL-BY-CELL FLOW TERM FLAG = 1

 OUTPUT FLAGS FOR ALL LAYERS ARE THE SAME:
   HEAD    DRAWDOWN  HEAD  DRAWDOWN
 PRINTOUT  PRINTOUT  SAVE    SAVE
 ----------------------------------
     0         0       0       0



 STREAM LISTING     PERIOD      1   STEP       89

 LAYER ROW COL. STREAM  RCH.  FLOW INTO     FLOW TO   FLOW OUT OF   OVRLND.     DIRECT     STREAM       STREAM     STREAM     STREAM   STREAMBED  STREAMBED
                SEG.NO.  NO.  STRM. RCH.    AQUIFER    STRM. RCH.    RUNOFF     PRECIP       ET          HEAD       DEPTH      WIDTH   CONDCTNC.   GRADIENT

   1    2    5     1     1    6.9120E+05 -7.9643E+04   7.7084E+05  0.000E+00  0.000E+00  0.000E+00  1.25330E+02  1.382E+00  5.000E+00  5.000E+03 -3.186E+01
   1    3    5     1     2    7.7084E+05 -5.5185E+04   8.2603E+05  0.000E+00  0.000E+00  0.000E+00  1.24302E+02  1.457E+00  5.000E+00  5.000E+03 -2.207E+01
   1    4    5     1     3    8.2603E+05 -5.0864E+04   8.7689E+05  0.000E+00  0.000E+00  0.000E+00  1.23255E+02  1.514E+00  5.000E+00  5.000E+03 -2.035E+01
   1    4    6     1     4    8.7689E+05 -4.1391E+04   9.1828E+05  0.000E+00  0.000E+00  0.000E+00  1.22201E+02  1.563E+00  5.000E+00  5.000E+03 -1.656E+01
   1    4    7     1     5    9.1828E+05 -2.0246E+04   9.3853E+05  0.000E+00  0.000E+00  0.000E+00  1.21405E+02  1.595E+00  5.000E+00  2.500E+03 -1.620E+01
   1    4    8     1     6    9.3853E+05 -3.3345E+04   9.7187E+05  0.000E+00  0.000E+00  0.000E+00  1.20743E+02  1.622E+00  5.000E+00  3.750E+03 -1.778E+01
   1    5    8     1     7    9.7187E+05 -3.4118E+04   1.0060E+06  0.000E+00  0.000E+00  0.000E+00  1.19812E+02  1.656E+00  5.000E+00  5.000E+03 -1.365E+01
   1    6    8     1     8    1.0060E+06 -2.3146E+04   1.0291E+06  0.000E+00  0.000E+00  0.000E+00  1.18737E+02  1.685E+00  5.000E+00  5.000E+03 -9.258E+00
   1   12    9     2     1    1.2989E+06 -2.3777E+04   1.3227E+06  0.000E+00  0.000E+00  0.000E+00  1.16583E+02  2.144E+00  5.000E+00  5.000E+03 -9.511E+00
   1   13    9     2     2    1.3227E+06 -3.6759E+04   1.3594E+06  0.000E+00  0.000E+00  0.000E+00  1.15792E+02  2.173E+00  5.000E+00  5.000E+03 -1.470E+01
   1   14   10     2     3    1.3594E+06 -1.9931E+04   1.3794E+06  0.000E+00  0.000E+00  0.000E+00  1.15180E+02  2.201E+00  5.000E+00  2.795E+03 -1.426E+01
   1   14   10     2     4    1.3794E+06 -2.1158E+04   1.4005E+06  0.000E+00  0.000E+00  0.000E+00  1.14741E+02  2.220E+00  5.000E+00  2.795E+03 -1.514E+01
   1   15   10     2     5    1.4005E+06 -3.5378E+04   1.4359E+06  0.000E+00  0.000E+00  0.000E+00  1.14128E+02  2.247E+00  5.000E+00  5.000E+03 -1.415E+01
   1   16   10     2     6    1.4359E+06 -2.3901E+04   1.4598E+06  0.000E+00  0.000E+00  0.000E+00  1.13336E+02  2.275E+00  5.000E+00  5.000E+03 -9.560E+00
   1   22   10     3     1    1.7482E+06 -2.5573E+04   1.7738E+06  0.000E+00  0.000E+00  0.000E+00  1.11408E+02  2.452E+00  5.000E+00  5.000E+03 -1.023E+01
   1   23   10     3     2    1.7738E+06 -3.7463E+04   1.8113E+06  0.000E+00  0.000E+00  0.000E+00  1.10607E+02  2.479E+00  5.000E+00  3.750E+03 -1.998E+01
   1   23   11     3     3    1.8113E+06 -2.2418E+04   1.8337E+06  0.000E+00  0.000E+00  0.000E+00  1.10040E+02  2.503E+00  5.000E+00  2.500E+03 -1.793E+01
   1   23   12     3     4    1.8337E+06 -4.4825E+04   1.8785E+06  0.000E+00  0.000E+00  0.000E+00  1.09359E+02  2.531E+00  5.000E+00  5.000E+03 -1.793E+01
   1   23   13     3     5    1.8785E+06 -4.8595E+04   1.9271E+06  0.000E+00  0.000E+00  0.000E+00  1.08451E+02  2.569E+00  5.000E+00  5.000E+03 -1.944E+01
   1   23   14     3     6    1.9271E+06 -5.2774E+04   1.9799E+06  0.000E+00  0.000E+00  0.000E+00  1.07546E+02  2.610E+00  5.000E+00  5.000E+03 -2.111E+01
   1   23   15     3     7    1.9799E+06 -6.0760E+04   2.0407E+06  0.000E+00  0.000E+00  0.000E+00  1.06645E+02  2.655E+00  5.000E+00  5.000E+03 -2.430E+01
   1   23   16     3     8    2.0407E+06 -8.9733E+04   2.1304E+06  0.000E+00  0.000E+00  0.000E+00  1.05759E+02  2.714E+00  5.000E+00  5.000E+03 -3.589E+01





     0  LAKE CELLS ARE DRY.

 PERIOD     1     TIME STEP    89     TIME STEP LENGTH  6.7966E+00
 PERIOD TIME  4.8971E+02     TOTAL SIMULATION TIME  4.8971E+02


                 HYDROLOGIC BUDGET SUMMARIES FOR SIMULATED LAKES
     (ALL FLUID FLUXES ARE VOLUMES ADDED TO THE LAKE DURING PRESENT TIME STEP)
     -------------------------------------------------------------------------
 LAKE    STAGE         VOLUME     VOL.CHANGE      PRECIP     EVAPORATION        RUNOFF
   1   116.9819     8.4886E+07    1.5272E+04    4.9276E+05    4.3753E+05    0.0000E+00
   2   111.8703     5.2939E+07    2.9064E+04    4.9276E+05    4.3753E+05    0.0000E+00

            GROUND WATER            SURFACE WATER        WATER
 LAKE    INFLOW     OUTFLOW      INFLOW     OUTFLOW       USE
   1  1.7934E+06  0.0000E+00  6.9947E+06  8.8280E+06  0.0000E+00
   2  1.9344E+06  0.0000E+00  9.9216E+06  1.1882E+07  0.0000E+00

      CONNECTED LAKE   TIME-STEP         STAGE-CHANGE          PERCENT
 LAKE    INFLUX      SURFACE AREA   TIME STEP  CUMULATIVE    DISCREPANCY
   1   0.0000E+00     6.2500E+06   2.4435E-03 -1.3018E+01       0.000
   2   0.0000E+00     6.2500E+06   4.6508E-03 -1.8130E+01       0.000
 --------------------------------------------------------------------------------



            CUMULATIVE HYDROLOGIC BUDGET SUMMARIES FOR SIMULATED LAKES
     (ALL FLUID FLUXES ARE SUMS OF VOLUMES ADDED TO THE LAKE SINCE INITIAL TIME)
     ---------------------------------------------------------------------------
 LAKE       PRECIP       EVAP       RUNOFF
   1     3.5504E+07  3.1525E+07  0.0000E+00
   2     3.5504E+07  3.1525E+07  0.0000E+00

            GROUND WATER            SURFACE WATER
 LAKE    INFLOW     OUTFLOW      INFLOW     OUTFLOW
   1  7.2893E+07  1.5644E+06  4.4572E+08  6.0239E+08
   2  8.7898E+07  1.4259E+06  6.5246E+08  8.5622E+08

         WATER    CONNECTED LAKE   CHANGE       PERCENT
 LAKE     USE         INFLUX       IN VOL.    DISCREPANCY
   1   0.0000E+00   0.0000E+00  -8.1363E+07      0.000
   2   0.0000E+00   0.0000E+00  -1.1331E+08      0.000
 --------------------------------------------------------------------------------

 
 SOLVING FOR HEAD 
     6 ITERATIONS FOR TIME STEP  90 IN STRESS PERIOD    1

 HEAD/DRAWDOWN PRINTOUT FLAG = 1     TOTAL BUDGET PRINTOUT FLAG = 1
 CELL-BY-CELL FLOW TERM FLAG = 1

 OUTPUT FLAGS FOR EACH LAYER:
          HEAD    DRAWDOWN  HEAD  DRAWDOWN
 LAYER  PRINTOUT  PRINTOUT  SAVE    SAVE
 -----------------------------------------
    1       0         0       0       0
    2       0         0       0       0
    3       0         0       0       0
    4       0         0       0       0
    5       1         0       0       0



 STREAM LISTING     PERIOD      1   STEP       90

 LAYER ROW COL. STREAM  RCH.  FLOW INTO     FLOW TO   FLOW OUT OF   OVRLND.     DIRECT     STREAM       STREAM     STREAM     STREAM   STREAMBED  STREAMBED
                SEG.NO.  NO.  STRM. RCH.    AQUIFER    STRM. RCH.    RUNOFF     PRECIP       ET          HEAD       DEPTH      WIDTH   CONDCTNC.   GRADIENT

   1    2    5     1     1    6.9120E+05 -7.9664E+04   7.7086E+05  0.000E+00  0.000E+00  0.000E+00  1.25330E+02  1.382E+00  5.000E+00  5.000E+03 -3.187E+01
   1    3    5     1     2    7.7086E+05 -5.5250E+04   8.2611E+05  0.000E+00  0.000E+00  0.000E+00  1.24302E+02  1.457E+00  5.000E+00  5.000E+03 -2.210E+01
   1    4    5     1     3    8.2611E+05 -5.1000E+04   8.7711E+05  0.000E+00  0.000E+00  0.000E+00  1.23256E+02  1.514E+00  5.000E+00  5.000E+03 -2.040E+01
   1    4    6     1     4    8.7711E+05 -4.1509E+04   9.1862E+05  0.000E+00  0.000E+00  0.000E+00  1.22201E+02  1.563E+00  5.000E+00  5.000E+03 -1.660E+01
   1    4    7     1     5    9.1862E+05 -2.0298E+04   9.3892E+05  0.000E+00  0.000E+00  0.000E+00  1.21405E+02  1.595E+00  5.000E+00  2.500E+03 -1.624E+01
   1    4    8     1     6    9.3892E+05 -3.3426E+04   9.7235E+05  0.000E+00  0.000E+00  0.000E+00  1.20743E+02  1.623E+00  5.000E+00  3.750E+03 -1.783E+01
   1    5    8     1     7    9.7235E+05 -3.4260E+04   1.0066E+06  0.000E+00  0.000E+00  0.000E+00  1.19812E+02  1.657E+00  5.000E+00  5.000E+03 -1.370E+01
   1    6    8     1     8    1.0066E+06 -2.3260E+04   1.0299E+06  0.000E+00  0.000E+00  0.000E+00  1.18737E+02  1.686E+00  5.000E+00  5.000E+03 -9.304E+00
   1   12    9     2     1    1.3013E+06 -2.3928E+04   1.3252E+06  0.000E+00  0.000E+00  0.000E+00  1.16586E+02  2.146E+00  5.000E+00  5.000E+03 -9.571E+00
   1   13    9     2     2    1.3252E+06 -3.7022E+04   1.3622E+06  0.000E+00  0.000E+00  0.000E+00  1.15795E+02  2.176E+00  5.000E+00  5.000E+03 -1.481E+01
   1   14   10     2     3    1.3622E+06 -2.0066E+04   1.3823E+06  0.000E+00  0.000E+00  0.000E+00  1.15183E+02  2.203E+00  5.000E+00  2.795E+03 -1.436E+01
   1   14   10     2     4    1.3823E+06 -2.1293E+04   1.4036E+06  0.000E+00  0.000E+00  0.000E+00  1.14744E+02  2.223E+00  5.000E+00  2.795E+03 -1.524E+01
   1   15   10     2     5    1.4036E+06 -3.5609E+04   1.4392E+06  0.000E+00  0.000E+00  0.000E+00  1.14131E+02  2.250E+00  5.000E+00  5.000E+03 -1.424E+01
   1   16   10     2     6    1.4392E+06 -2.4042E+04   1.4632E+06  0.000E+00  0.000E+00  0.000E+00  1.13339E+02  2.279E+00  5.000E+00  5.000E+03 -9.617E+00
   1   22   10     3     1    1.7536E+06 -2.5682E+04   1.7793E+06  0.000E+00  0.000E+00  0.000E+00  1.11413E+02  2.457E+00  5.000E+00  5.000E+03 -1.027E+01
   1   23   10     3     2    1.7793E+06 -3.7596E+04   1.8168E+06  0.000E+00  0.000E+00  0.000E+00  1.10611E+02  2.483E+00  5.000E+00  3.750E+03 -2.005E+01
   1   23   11     3     3    1.8168E+06 -2.2484E+04   1.8393E+06  0.000E+00  0.000E+00  0.000E+00  1.10045E+02  2.508E+00  5.000E+00  2.500E+03 -1.799E+01
   1   23   12     3     4    1.8393E+06 -4.4937E+04   1.8843E+06  0.000E+00  0.000E+00  0.000E+00  1.09363E+02  2.536E+00  5.000E+00  5.000E+03 -1.797E+01
   1   23   13     3     5    1.8843E+06 -4.8701E+04   1.9330E+06  0.000E+00  0.000E+00  0.000E+00  1.08455E+02  2.574E+00  5.000E+00  5.000E+03 -1.948E+01
   1   23   14     3     6    1.9330E+06 -5.2862E+04   1.9858E+06  0.000E+00  0.000E+00  0.000E+00  1.07551E+02  2.615E+00  5.000E+00  5.000E+03 -2.114E+01
   1   23   15     3     7    1.9858E+06 -6.0814E+04   2.0466E+06  0.000E+00  0.000E+00  0.000E+00  1.06650E+02  2.660E+00  5.000E+00  5.000E+03 -2.433E+01
   1   23   16     3     8    2.0466E+06 -8.9747E+04   2.1364E+06  0.000E+00  0.000E+00  0.000E+00  1.05763E+02  2.719E+00  5.000E+00  5.000E+03 -3.590E+01





     0  LAKE CELLS ARE DRY.

 PERIOD     1     TIME STEP    90     TIME STEP LENGTH  6.8306E+00
 PERIOD TIME  4.9654E+02     TOTAL SIMULATION TIME  4.9654E+02


                 HYDROLOGIC BUDGET SUMMARIES FOR SIMULATED LAKES
     (ALL FLUID FLUXES ARE VOLUMES ADDED TO THE LAKE DURING PRESENT TIME STEP)
     -------------------------------------------------------------------------
 LAKE    STAGE         VOLUME     VOL.CHANGE      PRECIP     EVAPORATION        RUNOFF
   1   116.9842     8.4901E+07    1.4648E+04    4.9522E+05    4.3972E+05    0.0000E+00
   2   111.8748     5.2967E+07    2.8012E+04    4.9522E+05    4.3972E+05    0.0000E+00

            GROUND WATER            SURFACE WATER        WATER
 LAKE    INFLOW     OUTFLOW      INFLOW     OUTFLOW       USE
   1  1.8129E+06  0.0000E+00  7.0346E+06  8.8884E+06  0.0000E+00
   2  1.9558E+06  0.0000E+00  9.9947E+06  1.1978E+07  0.0000E+00

      CONNECTED LAKE   TIME-STEP         STAGE-CHANGE          PERCENT
 LAKE    INFLUX      SURFACE AREA   TIME STEP  CUMULATIVE    DISCREPANCY
   1   0.0000E+00     6.2500E+06   2.3435E-03 -1.3016E+01       0.000
   2   0.0000E+00     6.2500E+06   4.4817E-03 -1.8125E+01       0.000
 --------------------------------------------------------------------------------



            CUMULATIVE HYDROLOGIC BUDGET SUMMARIES FOR SIMULATED LAKES
     (ALL FLUID FLUXES ARE SUMS OF VOLUMES ADDED TO THE LAKE SINCE INITIAL TIME)
     ---------------------------------------------------------------------------
 LAKE       PRECIP       EVAP       RUNOFF
   1     3.5999E+07  3.1965E+07  0.0000E+00
   2     3.5999E+07  3.1965E+07  0.0000E+00

            GROUND WATER            SURFACE WATER
 LAKE    INFLOW     OUTFLOW      INFLOW     OUTFLOW
   1  7.4706E+07  1.5644E+06  4.5276E+08  6.1128E+08
   2  8.9853E+07  1.4259E+06  6.6245E+08  8.6820E+08

         WATER    CONNECTED LAKE   CHANGE       PERCENT
 LAKE     USE         INFLUX       IN VOL.    DISCREPANCY
   1   0.0000E+00   0.0000E+00  -8.1348E+07      0.000
   2   0.0000E+00   0.0000E+00  -1.1328E+08      0.000
 --------------------------------------------------------------------------------

1
              HEAD IN LAYER   5 AT END OF TIME STEP  90 IN STRESS PERIOD    1
  ---------------------------------------------------------------------------

          1      2      3      4      5      6      7      8      9     10
 .........................................................................
   1   160.0  158.9  157.3  155.8  154.2  152.7  151.5  150.8  150.0  149.2
   2   160.0  158.1  155.2  151.0  141.3  146.6  147.1  147.0  146.8  146.4
   3   160.0  157.4  153.3  147.3  135.4  139.6  140.5  140.9  141.7  142.2
   4   160.0  157.1  152.5  146.1  133.5  130.5  129.5  129.7  134.8  137.5
   5   160.0  157.0  152.5  147.3  140.7  135.0  130.4  126.7  130.8  133.6
   6   160.0  157.0  152.6  147.9  142.2  134.8  127.6  123.4  125.5  127.4
   7   160.0  157.0  152.6  147.9  142.0  132.2  117.8  117.2  117.3  117.3
   8   160.0  157.0  152.7  148.0  141.9  131.4  117.5  117.0  117.0  117.0
   9   160.0  157.0  152.7  148.0  141.9  131.3  117.4  117.0  117.0  117.0
  10   160.0  157.0  152.7  148.1  142.1  131.7  117.5  117.0  117.0  117.0
  11   160.0  157.1  152.7  148.2  142.5  132.8  117.8  117.3  117.1  117.2
  12   160.0  157.1  152.8  148.5  143.3  136.2  129.0  125.2  121.4  124.1
  13   160.0  157.1  152.9  148.7  144.2  138.6  133.1  128.8  123.2  126.3
  14   160.0  157.1  152.9  148.8  144.4  139.3  134.6  130.9  126.9  122.4
  15   160.0  157.1  152.8  148.6  143.9  138.3  133.2  129.6  125.8  121.3
  16   160.0  157.0  152.7  148.2  142.7  134.9  127.3  123.7  121.0  118.2
  17   160.0  157.0  152.6  147.9  141.7  130.5  112.9  112.3  112.2  112.1
  18   160.0  157.0  152.6  147.8  141.3  129.1  112.4  111.9  111.9  111.9
  19   160.0  157.0  152.7  147.9  141.3  128.9  112.4  111.9  111.9  111.9
  20   160.0  157.1  152.8  148.1  141.6  129.5  112.5  111.9  111.9  111.9
  21   160.0  157.1  152.9  148.4  142.4  131.3  113.0  112.3  112.2  112.0
  22   160.0  157.2  153.2  149.1  144.0  136.6  128.7  124.8  121.1  116.6
  23   160.0  157.4  153.8  150.3  146.4  141.6  137.1  133.5  128.5  120.7
  24   160.0  157.7  154.5  151.5  148.5  145.2  142.5  140.5  138.4  136.3
  25   160.0  158.0  155.3  152.9  150.5  148.1  146.2  145.0  143.7  142.6
  26   160.0  158.4  156.4  154.4  152.6  150.7  149.4  148.5  147.6  146.7
  27   160.0  158.9  157.3  155.8  154.2  152.7  151.5  150.8  150.0  149.2
1
              HEAD IN LAYER   5 AT END OF TIME STEP  90 IN STRESS PERIOD    1
  ---------------------------------------------------------------------------

         11     12     13     14     15     16     17
 ....................................................
   1   148.5  147.3  145.8  144.2  142.7  141.1  140.0
   2   146.0  145.3  144.1  142.8  141.6  140.5  140.0
   3   142.5  142.6  142.1  141.3  140.5  140.0  140.0
   4   138.9  140.1  140.4  140.2  139.8  139.7  140.0
   5   135.5  137.6  138.8  139.2  139.3  139.5  140.0
   6   129.6  134.1  137.1  138.3  138.8  139.3  140.0
   7   117.8  130.3  135.9  137.8  138.6  139.2  140.0
   8   117.4  129.0  135.3  137.6  138.5  139.2  140.0
   9   117.3  128.5  135.0  137.4  138.4  139.2  140.0
  10   117.4  128.6  135.0  137.4  138.4  139.2  140.0
  11   117.7  129.4  135.2  137.4  138.4  139.1  140.0
  12   126.8  132.0  135.8  137.5  138.4  139.1  140.0
  13   129.4  133.4  136.2  137.6  138.4  139.1  140.0
  14   127.7  133.0  136.1  137.5  138.3  139.1  140.0
  15   126.2  131.8  135.5  137.2  138.2  139.1  140.0
  16   122.4  129.2  134.4  136.7  137.9  139.0  140.0
  17   112.6  125.9  133.2  136.0  137.5  138.8  140.0
  18   112.3  124.6  132.5  135.5  137.1  138.6  140.0
  19   112.3  123.9  131.7  134.8  136.5  138.3  140.0
  20   112.2  123.4  130.8  133.8  135.6  137.8  140.0
  21   112.4  123.1  129.6  132.4  134.3  137.0  140.0
  22   119.0  123.1  126.9  129.1  130.9  134.6  140.0
  23   119.1  118.4  118.2  118.1  118.8  123.8  140.0
  24   134.9  133.5  132.4  131.8  132.2  135.1  140.0
  25   141.6  140.3  138.9  138.0  137.6  138.4  140.0
  26   145.9  144.7  143.2  141.9  140.8  140.1  140.0
  27   148.5  147.3  145.8  144.2  142.7  141.1  140.0
1
  VOLUMETRIC BUDGET FOR ENTIRE MODEL AT END OF TIME STEP 90 IN STRESS PERIOD   1
  ------------------------------------------------------------------------------

     CUMULATIVE VOLUMES      L**3       RATES FOR THIS TIME STEP      L**3/T
     ------------------                 ------------------------

           IN:                                      IN:
           ---                                      ---
             STORAGE =     2934567.7500               STORAGE =           0.0000
       CONSTANT HEAD =   755632256.0000         CONSTANT HEAD =      612964.0000
                  ET =           0.0000                    ET =           0.0000
            RECHARGE =  1367960320.0000              RECHARGE =     2755000.0000
     SPECIFIED FLOWS =           0.0000       SPECIFIED FLOWS =           0.0000
      STREAM LEAKAGE =     3694574.2500        STREAM LEAKAGE =           0.0000
       LAKE  SEEPAGE =     2990331.7500         LAKE  SEEPAGE =           0.0000

            TOTAL IN =  2133212032.0000              TOTAL IN =     3367964.0000

          OUT:                                     OUT:
          ----                                     ----
             STORAGE =  1221842176.0000               STORAGE =      369516.3438
       CONSTANT HEAD =      302656.3125         CONSTANT HEAD =        1874.9497
                  ET =   427862336.0000                    ET =     1561388.5000
            RECHARGE =           0.0000              RECHARGE =           0.0000
     SPECIFIED FLOWS =           0.0000       SPECIFIED FLOWS =           0.0000
      STREAM LEAKAGE =   318642112.0000        STREAM LEAKAGE =      883452.0625
       LAKE  SEEPAGE =   164559200.0000         LAKE  SEEPAGE =      551738.2500

           TOTAL OUT =  2133208448.0000             TOTAL OUT =     3367970.0000

            IN - OUT =        3584.0000              IN - OUT =          -6.0000

 PERCENT DISCREPANCY =           0.00     PERCENT DISCREPANCY =           0.00






          TIME SUMMARY AT END OF TIME STEP  90 IN STRESS PERIOD    1
                    SECONDS     MINUTES      HOURS       DAYS        YEARS
                    -----------------------------------------------------------
   TIME STEP LENGTH 5.90165E+05  9836.1      163.93      6.8306     1.87012E-02
 STRESS PERIOD TIME 4.29008E+07 7.15014E+05  11917.      496.54      1.3594    
         TOTAL TIME 4.29008E+07 7.15014E+05  11917.      496.54      1.3594    
1
 
 SOLVING FOR HEAD 
     6 ITERATIONS FOR TIME STEP  91 IN STRESS PERIOD    1

 HEAD/DRAWDOWN PRINTOUT FLAG = 0     TOTAL BUDGET PRINTOUT FLAG = 0
 CELL-BY-CELL FLOW TERM FLAG = 1

 OUTPUT FLAGS FOR ALL LAYERS ARE THE SAME:
   HEAD    DRAWDOWN  HEAD  DRAWDOWN
 PRINTOUT  PRINTOUT  SAVE    SAVE
 ----------------------------------
     0         0       0       0



 STREAM LISTING     PERIOD      1   STEP       91

 LAYER ROW COL. STREAM  RCH.  FLOW INTO     FLOW TO   FLOW OUT OF   OVRLND.     DIRECT     STREAM       STREAM     STREAM     STREAM   STREAMBED  STREAMBED
                SEG.NO.  NO.  STRM. RCH.    AQUIFER    STRM. RCH.    RUNOFF     PRECIP       ET          HEAD       DEPTH      WIDTH   CONDCTNC.   GRADIENT

   1    2    5     1     1    6.9120E+05 -7.9685E+04   7.7088E+05  0.000E+00  0.000E+00  0.000E+00  1.25330E+02  1.382E+00  5.000E+00  5.000E+03 -3.187E+01
   1    3    5     1     2    7.7088E+05 -5.5311E+04   8.2620E+05  0.000E+00  0.000E+00  0.000E+00  1.24302E+02  1.457E+00  5.000E+00  5.000E+03 -2.212E+01
   1    4    5     1     3    8.2620E+05 -5.1129E+04   8.7732E+05  0.000E+00  0.000E+00  0.000E+00  1.23256E+02  1.514E+00  5.000E+00  5.000E+03 -2.045E+01
   1    4    6     1     4    8.7732E+05 -4.1621E+04   9.1895E+05  0.000E+00  0.000E+00  0.000E+00  1.22201E+02  1.563E+00  5.000E+00  5.000E+03 -1.665E+01
   1    4    7     1     5    9.1895E+05 -2.0348E+04   9.3929E+05  0.000E+00  0.000E+00  0.000E+00  1.21406E+02  1.596E+00  5.000E+00  2.500E+03 -1.628E+01
   1    4    8     1     6    9.3929E+05 -3.3504E+04   9.7280E+05  0.000E+00  0.000E+00  0.000E+00  1.20744E+02  1.623E+00  5.000E+00  3.750E+03 -1.787E+01
   1    5    8     1     7    9.7280E+05 -3.4394E+04   1.0072E+06  0.000E+00  0.000E+00  0.000E+00  1.19813E+02  1.657E+00  5.000E+00  5.000E+03 -1.376E+01
   1    6    8     1     8    1.0072E+06 -2.3370E+04   1.0306E+06  0.000E+00  0.000E+00  0.000E+00  1.18738E+02  1.686E+00  5.000E+00  5.000E+03 -9.348E+00
   1   12    9     2     1    1.3035E+06 -2.4075E+04   1.3276E+06  0.000E+00  0.000E+00  0.000E+00  1.16588E+02  2.148E+00  5.000E+00  5.000E+03 -9.630E+00
   1   13    9     2     2    1.3276E+06 -3.7276E+04   1.3649E+06  0.000E+00  0.000E+00  0.000E+00  1.15797E+02  2.178E+00  5.000E+00  5.000E+03 -1.491E+01
   1   14   10     2     3    1.3649E+06 -2.0198E+04   1.3851E+06  0.000E+00  0.000E+00  0.000E+00  1.15185E+02  2.206E+00  5.000E+00  2.795E+03 -1.445E+01
   1   14   10     2     4    1.3851E+06 -2.1425E+04   1.4065E+06  0.000E+00  0.000E+00  0.000E+00  1.14747E+02  2.226E+00  5.000E+00  2.795E+03 -1.533E+01
   1   15   10     2     5    1.4065E+06 -3.5835E+04   1.4423E+06  0.000E+00  0.000E+00  0.000E+00  1.14134E+02  2.253E+00  5.000E+00  5.000E+03 -1.433E+01
   1   16   10     2     6    1.4423E+06 -2.4181E+04   1.4665E+06  0.000E+00  0.000E+00  0.000E+00  1.13342E+02  2.282E+00  5.000E+00  5.000E+03 -9.672E+00
   1   22   10     3     1    1.7587E+06 -2.5787E+04   1.7845E+06  0.000E+00  0.000E+00  0.000E+00  1.11417E+02  2.461E+00  5.000E+00  5.000E+03 -1.031E+01
   1   23   10     3     2    1.7845E+06 -3.7723E+04   1.8222E+06  0.000E+00  0.000E+00  0.000E+00  1.10616E+02  2.488E+00  5.000E+00  3.750E+03 -2.012E+01
   1   23   11     3     3    1.8222E+06 -2.2548E+04   1.8448E+06  0.000E+00  0.000E+00  0.000E+00  1.10049E+02  2.512E+00  5.000E+00  2.500E+03 -1.804E+01
   1   23   12     3     4    1.8448E+06 -4.5044E+04   1.8898E+06  0.000E+00  0.000E+00  0.000E+00  1.09368E+02  2.540E+00  5.000E+00  5.000E+03 -1.802E+01
   1   23   13     3     5    1.8898E+06 -4.8803E+04   1.9386E+06  0.000E+00  0.000E+00  0.000E+00  1.08460E+02  2.578E+00  5.000E+00  5.000E+03 -1.952E+01
   1   23   14     3     6    1.9386E+06 -5.2946E+04   1.9916E+06  0.000E+00  0.000E+00  0.000E+00  1.07555E+02  2.619E+00  5.000E+00  5.000E+03 -2.118E+01
   1   23   15     3     7    1.9916E+06 -6.0865E+04   2.0524E+06  0.000E+00  0.000E+00  0.000E+00  1.06655E+02  2.664E+00  5.000E+00  5.000E+03 -2.435E+01
   1   23   16     3     8    2.0524E+06 -8.9761E+04   2.1422E+06  0.000E+00  0.000E+00  0.000E+00  1.05768E+02  2.723E+00  5.000E+00  5.000E+03 -3.590E+01





     0  LAKE CELLS ARE DRY.

 PERIOD     1     TIME STEP    91     TIME STEP LENGTH  6.8648E+00
 PERIOD TIME  5.0340E+02     TOTAL SIMULATION TIME  5.0340E+02


                 HYDROLOGIC BUDGET SUMMARIES FOR SIMULATED LAKES
     (ALL FLUID FLUXES ARE VOLUMES ADDED TO THE LAKE DURING PRESENT TIME STEP)
     -------------------------------------------------------------------------
 LAKE    STAGE         VOLUME     VOL.CHANGE      PRECIP     EVAPORATION        RUNOFF
   1   116.9865     8.4915E+07    1.4024E+04    4.9770E+05    4.4192E+05    0.0000E+00
   2   111.8791     5.2994E+07    2.6956E+04    4.9770E+05    4.4192E+05    0.0000E+00

            GROUND WATER            SURFACE WATER        WATER
 LAKE    INFLOW     OUTFLOW      INFLOW     OUTFLOW       USE
   1  1.8321E+06  0.0000E+00  7.0746E+06  8.9485E+06  0.0000E+00
   2  1.9769E+06  0.0000E+00  1.0067E+07  1.2073E+07  0.0000E+00

      CONNECTED LAKE   TIME-STEP         STAGE-CHANGE          PERCENT
 LAKE    INFLUX      SURFACE AREA   TIME STEP  CUMULATIVE    DISCREPANCY
   1   0.0000E+00     6.2500E+06   2.2445E-03 -1.3014E+01       0.000
   2   0.0000E+00     6.2500E+06   4.3130E-03 -1.8121E+01       0.000
 --------------------------------------------------------------------------------



            CUMULATIVE HYDROLOGIC BUDGET SUMMARIES FOR SIMULATED LAKES
     (ALL FLUID FLUXES ARE SUMS OF VOLUMES ADDED TO THE LAKE SINCE INITIAL TIME)
     ---------------------------------------------------------------------------
 LAKE       PRECIP       EVAP       RUNOFF
   1     3.6497E+07  3.2407E+07  0.0000E+00
   2     3.6497E+07  3.2407E+07  0.0000E+00

            GROUND WATER            SURFACE WATER
 LAKE    INFLOW     OUTFLOW      INFLOW     OUTFLOW
   1  7.6538E+07  1.5644E+06  4.5983E+08  6.2023E+08
   2  9.1830E+07  1.4259E+06  6.7252E+08  8.8027E+08

         WATER    CONNECTED LAKE   CHANGE       PERCENT
 LAKE     USE         INFLUX       IN VOL.    DISCREPANCY
   1   0.0000E+00   0.0000E+00  -8.1334E+07      0.000
   2   0.0000E+00   0.0000E+00  -1.1325E+08      0.000
 --------------------------------------------------------------------------------

 
 SOLVING FOR HEAD 
     6 ITERATIONS FOR TIME STEP  92 IN STRESS PERIOD    1

 HEAD/DRAWDOWN PRINTOUT FLAG = 0     TOTAL BUDGET PRINTOUT FLAG = 0
 CELL-BY-CELL FLOW TERM FLAG = 1

 OUTPUT FLAGS FOR ALL LAYERS ARE THE SAME:
   HEAD    DRAWDOWN  HEAD  DRAWDOWN
 PRINTOUT  PRINTOUT  SAVE    SAVE
 ----------------------------------
     0         0       0       0



 STREAM LISTING     PERIOD      1   STEP       92

 LAYER ROW COL. STREAM  RCH.  FLOW INTO     FLOW TO   FLOW OUT OF   OVRLND.     DIRECT     STREAM       STREAM     STREAM     STREAM   STREAMBED  STREAMBED
                SEG.NO.  NO.  STRM. RCH.    AQUIFER    STRM. RCH.    RUNOFF     PRECIP       ET          HEAD       DEPTH      WIDTH   CONDCTNC.   GRADIENT

   1    2    5     1     1    6.9120E+05 -7.9704E+04   7.7090E+05  0.000E+00  0.000E+00  0.000E+00  1.25330E+02  1.382E+00  5.000E+00  5.000E+03 -3.188E+01
   1    3    5     1     2    7.7090E+05 -5.5369E+04   8.2627E+05  0.000E+00  0.000E+00  0.000E+00  1.24302E+02  1.457E+00  5.000E+00  5.000E+03 -2.215E+01
   1    4    5     1     3    8.2627E+05 -5.1251E+04   8.7752E+05  0.000E+00  0.000E+00  0.000E+00  1.23256E+02  1.515E+00  5.000E+00  5.000E+03 -2.050E+01
   1    4    6     1     4    8.7752E+05 -4.1729E+04   9.1925E+05  0.000E+00  0.000E+00  0.000E+00  1.22202E+02  1.564E+00  5.000E+00  5.000E+03 -1.669E+01
   1    4    7     1     5    9.1925E+05 -2.0395E+04   9.3965E+05  0.000E+00  0.000E+00  0.000E+00  1.21406E+02  1.596E+00  5.000E+00  2.500E+03 -1.632E+01
   1    4    8     1     6    9.3965E+05 -3.3578E+04   9.7323E+05  0.000E+00  0.000E+00  0.000E+00  1.20744E+02  1.623E+00  5.000E+00  3.750E+03 -1.791E+01
   1    5    8     1     7    9.7323E+05 -3.4523E+04   1.0077E+06  0.000E+00  0.000E+00  0.000E+00  1.19813E+02  1.658E+00  5.000E+00  5.000E+03 -1.381E+01
   1    6    8     1     8    1.0077E+06 -2.3475E+04   1.0312E+06  0.000E+00  0.000E+00  0.000E+00  1.18739E+02  1.687E+00  5.000E+00  5.000E+03 -9.390E+00
   1   12    9     2     1    1.3057E+06 -2.4217E+04   1.3299E+06  0.000E+00  0.000E+00  0.000E+00  1.16590E+02  2.151E+00  5.000E+00  5.000E+03 -9.687E+00
   1   13    9     2     2    1.3299E+06 -3.7523E+04   1.3675E+06  0.000E+00  0.000E+00  0.000E+00  1.15800E+02  2.181E+00  5.000E+00  5.000E+03 -1.501E+01
   1   14   10     2     3    1.3675E+06 -2.0326E+04   1.3878E+06  0.000E+00  0.000E+00  0.000E+00  1.15188E+02  2.209E+00  5.000E+00  2.795E+03 -1.454E+01
   1   14   10     2     4    1.3878E+06 -2.1552E+04   1.4093E+06  0.000E+00  0.000E+00  0.000E+00  1.14749E+02  2.229E+00  5.000E+00  2.795E+03 -1.542E+01
   1   15   10     2     5    1.4093E+06 -3.6054E+04   1.4454E+06  0.000E+00  0.000E+00  0.000E+00  1.14137E+02  2.256E+00  5.000E+00  5.000E+03 -1.442E+01
   1   16   10     2     6    1.4454E+06 -2.4315E+04   1.4697E+06  0.000E+00  0.000E+00  0.000E+00  1.13345E+02  2.285E+00  5.000E+00  5.000E+03 -9.726E+00
   1   22   10     3     1    1.7637E+06 -2.5887E+04   1.7896E+06  0.000E+00  0.000E+00  0.000E+00  1.11421E+02  2.465E+00  5.000E+00  5.000E+03 -1.035E+01
   1   23   10     3     2    1.7896E+06 -3.7845E+04   1.8274E+06  0.000E+00  0.000E+00  0.000E+00  1.10620E+02  2.492E+00  5.000E+00  3.750E+03 -2.018E+01
   1   23   11     3     3    1.8274E+06 -2.2609E+04   1.8500E+06  0.000E+00  0.000E+00  0.000E+00  1.10054E+02  2.517E+00  5.000E+00  2.500E+03 -1.809E+01
   1   23   12     3     4    1.8500E+06 -4.5147E+04   1.8952E+06  0.000E+00  0.000E+00  0.000E+00  1.09372E+02  2.544E+00  5.000E+00  5.000E+03 -1.806E+01
   1   23   13     3     5    1.8952E+06 -4.8901E+04   1.9441E+06  0.000E+00  0.000E+00  0.000E+00  1.08464E+02  2.583E+00  5.000E+00  5.000E+03 -1.956E+01
   1   23   14     3     6    1.9441E+06 -5.3026E+04   1.9971E+06  0.000E+00  0.000E+00  0.000E+00  1.07559E+02  2.624E+00  5.000E+00  5.000E+03 -2.121E+01
   1   23   15     3     7    1.9971E+06 -6.0915E+04   2.0580E+06  0.000E+00  0.000E+00  0.000E+00  1.06659E+02  2.669E+00  5.000E+00  5.000E+03 -2.437E+01
   1   23   16     3     8    2.0580E+06 -8.9774E+04   2.1478E+06  0.000E+00  0.000E+00  0.000E+00  1.05772E+02  2.728E+00  5.000E+00  5.000E+03 -3.591E+01





     0  LAKE CELLS ARE DRY.

 PERIOD     1     TIME STEP    92     TIME STEP LENGTH  6.8991E+00
 PERIOD TIME  5.1030E+02     TOTAL SIMULATION TIME  5.1030E+02


                 HYDROLOGIC BUDGET SUMMARIES FOR SIMULATED LAKES
     (ALL FLUID FLUXES ARE VOLUMES ADDED TO THE LAKE DURING PRESENT TIME STEP)
     -------------------------------------------------------------------------
 LAKE    STAGE         VOLUME     VOL.CHANGE      PRECIP     EVAPORATION        RUNOFF
   1   116.9886     8.4928E+07    1.3448E+04    5.0018E+05    4.4413E+05    0.0000E+00
   2   111.8833     5.3019E+07    2.5756E+04    5.0018E+05    4.4413E+05    0.0000E+00

            GROUND WATER            SURFACE WATER        WATER
 LAKE    INFLOW     OUTFLOW      INFLOW     OUTFLOW       USE
   1  1.8511E+06  0.0000E+00  7.1145E+06  9.0082E+06  0.0000E+00
   2  1.9978E+06  0.0000E+00  1.0140E+07  1.2168E+07  0.0000E+00

      CONNECTED LAKE   TIME-STEP         STAGE-CHANGE          PERCENT
 LAKE    INFLUX      SURFACE AREA   TIME STEP  CUMULATIVE    DISCREPANCY
   1   0.0000E+00     6.2500E+06   2.1507E-03 -1.3011E+01       0.000
   2   0.0000E+00     6.2500E+06   4.1215E-03 -1.8117E+01       0.000
 --------------------------------------------------------------------------------



            CUMULATIVE HYDROLOGIC BUDGET SUMMARIES FOR SIMULATED LAKES
     (ALL FLUID FLUXES ARE SUMS OF VOLUMES ADDED TO THE LAKE SINCE INITIAL TIME)
     ---------------------------------------------------------------------------
 LAKE       PRECIP       EVAP       RUNOFF
   1     3.6997E+07  3.2851E+07  0.0000E+00
   2     3.6997E+07  3.2851E+07  0.0000E+00

            GROUND WATER            SURFACE WATER
 LAKE    INFLOW     OUTFLOW      INFLOW     OUTFLOW
   1  7.8389E+07  1.5644E+06  4.6695E+08  6.2924E+08
   2  9.3828E+07  1.4259E+06  6.8266E+08  8.9244E+08

         WATER    CONNECTED LAKE   CHANGE       PERCENT
 LAKE     USE         INFLUX       IN VOL.    DISCREPANCY
   1   0.0000E+00   0.0000E+00  -8.1320E+07      0.000
   2   0.0000E+00   0.0000E+00  -1.1323E+08      0.000
 --------------------------------------------------------------------------------

 
 SOLVING FOR HEAD 
     6 ITERATIONS FOR TIME STEP  93 IN STRESS PERIOD    1

 HEAD/DRAWDOWN PRINTOUT FLAG = 0     TOTAL BUDGET PRINTOUT FLAG = 0
 CELL-BY-CELL FLOW TERM FLAG = 1

 OUTPUT FLAGS FOR ALL LAYERS ARE THE SAME:
   HEAD    DRAWDOWN  HEAD  DRAWDOWN
 PRINTOUT  PRINTOUT  SAVE    SAVE
 ----------------------------------
     0         0       0       0



 STREAM LISTING     PERIOD      1   STEP       93

 LAYER ROW COL. STREAM  RCH.  FLOW INTO     FLOW TO   FLOW OUT OF   OVRLND.     DIRECT     STREAM       STREAM     STREAM     STREAM   STREAMBED  STREAMBED
                SEG.NO.  NO.  STRM. RCH.    AQUIFER    STRM. RCH.    RUNOFF     PRECIP       ET          HEAD       DEPTH      WIDTH   CONDCTNC.   GRADIENT

   1    2    5     1     1    6.9120E+05 -7.9722E+04   7.7092E+05  0.000E+00  0.000E+00  0.000E+00  1.25330E+02  1.382E+00  5.000E+00  5.000E+03 -3.189E+01
   1    3    5     1     2    7.7092E+05 -5.5424E+04   8.2635E+05  0.000E+00  0.000E+00  0.000E+00  1.24302E+02  1.457E+00  5.000E+00  5.000E+03 -2.217E+01
   1    4    5     1     3    8.2635E+05 -5.1367E+04   8.7771E+05  0.000E+00  0.000E+00  0.000E+00  1.23256E+02  1.515E+00  5.000E+00  5.000E+03 -2.055E+01
   1    4    6     1     4    8.7771E+05 -4.1830E+04   9.1954E+05  0.000E+00  0.000E+00  0.000E+00  1.22202E+02  1.564E+00  5.000E+00  5.000E+03 -1.673E+01
   1    4    7     1     5    9.1954E+05 -2.0441E+04   9.3998E+05  0.000E+00  0.000E+00  0.000E+00  1.21407E+02  1.596E+00  5.000E+00  2.500E+03 -1.635E+01
   1    4    8     1     6    9.3998E+05 -3.3649E+04   9.7363E+05  0.000E+00  0.000E+00  0.000E+00  1.20745E+02  1.624E+00  5.000E+00  3.750E+03 -1.795E+01
   1    5    8     1     7    9.7363E+05 -3.4646E+04   1.0083E+06  0.000E+00  0.000E+00  0.000E+00  1.19814E+02  1.658E+00  5.000E+00  5.000E+03 -1.386E+01
   1    6    8     1     8    1.0083E+06 -2.3574E+04   1.0319E+06  0.000E+00  0.000E+00  0.000E+00  1.18739E+02  1.687E+00  5.000E+00  5.000E+03 -9.430E+00
   1   12    9     2     1    1.3078E+06 -2.4355E+04   1.3322E+06  0.000E+00  0.000E+00  0.000E+00  1.16592E+02  2.153E+00  5.000E+00  5.000E+03 -9.742E+00
   1   13    9     2     2    1.3322E+06 -3.7762E+04   1.3699E+06  0.000E+00  0.000E+00  0.000E+00  1.15802E+02  2.183E+00  5.000E+00  5.000E+03 -1.510E+01
   1   14   10     2     3    1.3699E+06 -2.0450E+04   1.3904E+06  0.000E+00  0.000E+00  0.000E+00  1.15190E+02  2.211E+00  5.000E+00  2.795E+03 -1.463E+01
   1   14   10     2     4    1.3904E+06 -2.1676E+04   1.4120E+06  0.000E+00  0.000E+00  0.000E+00  1.14752E+02  2.231E+00  5.000E+00  2.795E+03 -1.551E+01
   1   15   10     2     5    1.4120E+06 -3.6267E+04   1.4483E+06  0.000E+00  0.000E+00  0.000E+00  1.14140E+02  2.259E+00  5.000E+00  5.000E+03 -1.451E+01
   1   16   10     2     6    1.4483E+06 -2.4446E+04   1.4728E+06  0.000E+00  0.000E+00  0.000E+00  1.13348E+02  2.287E+00  5.000E+00  5.000E+03 -9.778E+00
   1   22   10     3     1    1.7684E+06 -2.5984E+04   1.7944E+06  0.000E+00  0.000E+00  0.000E+00  1.11425E+02  2.469E+00  5.000E+00  5.000E+03 -1.039E+01
   1   23   10     3     2    1.7944E+06 -3.7961E+04   1.8324E+06  0.000E+00  0.000E+00  0.000E+00  1.10624E+02  2.496E+00  5.000E+00  3.750E+03 -2.025E+01
   1   23   11     3     3    1.8324E+06 -2.2667E+04   1.8550E+06  0.000E+00  0.000E+00  0.000E+00  1.10058E+02  2.521E+00  5.000E+00  2.500E+03 -1.813E+01
   1   23   12     3     4    1.8550E+06 -4.5245E+04   1.9003E+06  0.000E+00  0.000E+00  0.000E+00  1.09376E+02  2.549E+00  5.000E+00  5.000E+03 -1.810E+01
   1   23   13     3     5    1.9003E+06 -4.8995E+04   1.9493E+06  0.000E+00  0.000E+00  0.000E+00  1.08469E+02  2.587E+00  5.000E+00  5.000E+03 -1.960E+01
   1   23   14     3     6    1.9493E+06 -5.3102E+04   2.0024E+06  0.000E+00  0.000E+00  0.000E+00  1.07564E+02  2.628E+00  5.000E+00  5.000E+03 -2.124E+01
   1   23   15     3     7    2.0024E+06 -6.0962E+04   2.0633E+06  0.000E+00  0.000E+00  0.000E+00  1.06663E+02  2.673E+00  5.000E+00  5.000E+03 -2.438E+01
   1   23   16     3     8    2.0633E+06 -8.9787E+04   2.1531E+06  0.000E+00  0.000E+00  0.000E+00  1.05776E+02  2.732E+00  5.000E+00  5.000E+03 -3.591E+01





     0  LAKE CELLS ARE DRY.

 PERIOD     1     TIME STEP    93     TIME STEP LENGTH  6.9336E+00
 PERIOD TIME  5.1723E+02     TOTAL SIMULATION TIME  5.1723E+02


                 HYDROLOGIC BUDGET SUMMARIES FOR SIMULATED LAKES
     (ALL FLUID FLUXES ARE VOLUMES ADDED TO THE LAKE DURING PRESENT TIME STEP)
     -------------------------------------------------------------------------
 LAKE    STAGE         VOLUME     VOL.CHANGE      PRECIP     EVAPORATION        RUNOFF
   1   116.9907     8.4941E+07    1.2864E+04    5.0268E+05    4.4635E+05    0.0000E+00
   2   111.8872     5.3044E+07    2.4716E+04    5.0268E+05    4.4635E+05    0.0000E+00

            GROUND WATER            SURFACE WATER        WATER
 LAKE    INFLOW     OUTFLOW      INFLOW     OUTFLOW       USE
   1  1.8698E+06  0.0000E+00  7.1544E+06  9.0677E+06  0.0000E+00
   2  2.0185E+06  0.0000E+00  1.0211E+07  1.2262E+07  0.0000E+00

      CONNECTED LAKE   TIME-STEP         STAGE-CHANGE          PERCENT
 LAKE    INFLUX      SURFACE AREA   TIME STEP  CUMULATIVE    DISCREPANCY
   1   0.0000E+00     6.2500E+06   2.0582E-03 -1.3009E+01       0.000
   2   0.0000E+00     6.2500E+06   3.9543E-03 -1.8113E+01       0.000
 --------------------------------------------------------------------------------



            CUMULATIVE HYDROLOGIC BUDGET SUMMARIES FOR SIMULATED LAKES
     (ALL FLUID FLUXES ARE SUMS OF VOLUMES ADDED TO THE LAKE SINCE INITIAL TIME)
     ---------------------------------------------------------------------------
 LAKE       PRECIP       EVAP       RUNOFF
   1     3.7500E+07  3.3297E+07  0.0000E+00
   2     3.7500E+07  3.3297E+07  0.0000E+00

            GROUND WATER            SURFACE WATER
 LAKE    INFLOW     OUTFLOW      INFLOW     OUTFLOW
   1  8.0259E+07  1.5644E+06  4.7410E+08  6.3831E+08
   2  9.5847E+07  1.4259E+06  6.9287E+08  9.0470E+08

         WATER    CONNECTED LAKE   CHANGE       PERCENT
 LAKE     USE         INFLUX       IN VOL.    DISCREPANCY
   1   0.0000E+00   0.0000E+00  -8.1308E+07      0.000
   2   0.0000E+00   0.0000E+00  -1.1320E+08      0.000
 --------------------------------------------------------------------------------

 
 SOLVING FOR HEAD 
     6 ITERATIONS FOR TIME STEP  94 IN STRESS PERIOD    1

 HEAD/DRAWDOWN PRINTOUT FLAG = 0     TOTAL BUDGET PRINTOUT FLAG = 0
 CELL-BY-CELL FLOW TERM FLAG = 1

 OUTPUT FLAGS FOR ALL LAYERS ARE THE SAME:
   HEAD    DRAWDOWN  HEAD  DRAWDOWN
 PRINTOUT  PRINTOUT  SAVE    SAVE
 ----------------------------------
     0         0       0       0



 STREAM LISTING     PERIOD      1   STEP       94

 LAYER ROW COL. STREAM  RCH.  FLOW INTO     FLOW TO   FLOW OUT OF   OVRLND.     DIRECT     STREAM       STREAM     STREAM     STREAM   STREAMBED  STREAMBED
                SEG.NO.  NO.  STRM. RCH.    AQUIFER    STRM. RCH.    RUNOFF     PRECIP       ET          HEAD       DEPTH      WIDTH   CONDCTNC.   GRADIENT

   1    2    5     1     1    6.9120E+05 -7.9739E+04   7.7094E+05  0.000E+00  0.000E+00  0.000E+00  1.25330E+02  1.382E+00  5.000E+00  5.000E+03 -3.190E+01
   1    3    5     1     2    7.7094E+05 -5.5476E+04   8.2642E+05  0.000E+00  0.000E+00  0.000E+00  1.24302E+02  1.457E+00  5.000E+00  5.000E+03 -2.219E+01
   1    4    5     1     3    8.2642E+05 -5.1477E+04   8.7789E+05  0.000E+00  0.000E+00  0.000E+00  1.23256E+02  1.515E+00  5.000E+00  5.000E+03 -2.059E+01
   1    4    6     1     4    8.7789E+05 -4.1927E+04   9.1982E+05  0.000E+00  0.000E+00  0.000E+00  1.22202E+02  1.564E+00  5.000E+00  5.000E+03 -1.677E+01
   1    4    7     1     5    9.1982E+05 -2.0484E+04   9.4030E+05  0.000E+00  0.000E+00  0.000E+00  1.21407E+02  1.596E+00  5.000E+00  2.500E+03 -1.639E+01
   1    4    8     1     6    9.4030E+05 -3.3716E+04   9.7402E+05  0.000E+00  0.000E+00  0.000E+00  1.20745E+02  1.624E+00  5.000E+00  3.750E+03 -1.798E+01
   1    5    8     1     7    9.7402E+05 -3.4763E+04   1.0088E+06  0.000E+00  0.000E+00  0.000E+00  1.19814E+02  1.659E+00  5.000E+00  5.000E+03 -1.391E+01
   1    6    8     1     8    1.0088E+06 -2.3670E+04   1.0325E+06  0.000E+00  0.000E+00  0.000E+00  1.18740E+02  1.688E+00  5.000E+00  5.000E+03 -9.468E+00
   1   12    9     2     1    1.3098E+06 -2.4488E+04   1.3343E+06  0.000E+00  0.000E+00  0.000E+00  1.16594E+02  2.155E+00  5.000E+00  5.000E+03 -9.795E+00
   1   13    9     2     2    1.3343E+06 -3.7994E+04   1.3723E+06  0.000E+00  0.000E+00  0.000E+00  1.15804E+02  2.185E+00  5.000E+00  5.000E+03 -1.520E+01
   1   14   10     2     3    1.3723E+06 -2.0571E+04   1.3928E+06  0.000E+00  0.000E+00  0.000E+00  1.15193E+02  2.213E+00  5.000E+00  2.795E+03 -1.472E+01
   1   14   10     2     4    1.3928E+06 -2.1796E+04   1.4146E+06  0.000E+00  0.000E+00  0.000E+00  1.14754E+02  2.234E+00  5.000E+00  2.795E+03 -1.560E+01
   1   15   10     2     5    1.4146E+06 -3.6474E+04   1.4511E+06  0.000E+00  0.000E+00  0.000E+00  1.14142E+02  2.261E+00  5.000E+00  5.000E+03 -1.459E+01
   1   16   10     2     6    1.4511E+06 -2.4573E+04   1.4757E+06  0.000E+00  0.000E+00  0.000E+00  1.13350E+02  2.290E+00  5.000E+00  5.000E+03 -9.829E+00
   1   22   10     3     1    1.7730E+06 -2.6076E+04   1.7991E+06  0.000E+00  0.000E+00  0.000E+00  1.11429E+02  2.473E+00  5.000E+00  5.000E+03 -1.043E+01
   1   23   10     3     2    1.7991E+06 -3.8071E+04   1.8371E+06  0.000E+00  0.000E+00  0.000E+00  1.10628E+02  2.500E+00  5.000E+00  3.750E+03 -2.030E+01
   1   23   11     3     3    1.8371E+06 -2.2723E+04   1.8599E+06  0.000E+00  0.000E+00  0.000E+00  1.10062E+02  2.525E+00  5.000E+00  2.500E+03 -1.818E+01
   1   23   12     3     4    1.8599E+06 -4.5339E+04   1.9052E+06  0.000E+00  0.000E+00  0.000E+00  1.09380E+02  2.553E+00  5.000E+00  5.000E+03 -1.814E+01
   1   23   13     3     5    1.9052E+06 -4.9084E+04   1.9543E+06  0.000E+00  0.000E+00  0.000E+00  1.08473E+02  2.591E+00  5.000E+00  5.000E+03 -1.963E+01
   1   23   14     3     6    1.9543E+06 -5.3175E+04   2.0075E+06  0.000E+00  0.000E+00  0.000E+00  1.07568E+02  2.632E+00  5.000E+00  5.000E+03 -2.127E+01
   1   23   15     3     7    2.0075E+06 -6.1007E+04   2.0685E+06  0.000E+00  0.000E+00  0.000E+00  1.06667E+02  2.677E+00  5.000E+00  5.000E+03 -2.440E+01
   1   23   16     3     8    2.0685E+06 -8.9799E+04   2.1583E+06  0.000E+00  0.000E+00  0.000E+00  1.05780E+02  2.736E+00  5.000E+00  5.000E+03 -3.592E+01





     0  LAKE CELLS ARE DRY.

 PERIOD     1     TIME STEP    94     TIME STEP LENGTH  6.9682E+00
 PERIOD TIME  5.2420E+02     TOTAL SIMULATION TIME  5.2420E+02


                 HYDROLOGIC BUDGET SUMMARIES FOR SIMULATED LAKES
     (ALL FLUID FLUXES ARE VOLUMES ADDED TO THE LAKE DURING PRESENT TIME STEP)
     -------------------------------------------------------------------------
 LAKE    STAGE         VOLUME     VOL.CHANGE      PRECIP     EVAPORATION        RUNOFF
   1   116.9926     8.4953E+07    1.2288E+04    5.0520E+05    4.4858E+05    0.0000E+00
   2   111.8910     5.3068E+07    2.3692E+04    5.0520E+05    4.4858E+05    0.0000E+00

            GROUND WATER            SURFACE WATER        WATER
 LAKE    INFLOW     OUTFLOW      INFLOW     OUTFLOW       USE
   1  1.8883E+06  0.0000E+00  7.1944E+06  9.1270E+06  0.0000E+00
   2  2.0388E+06  0.0000E+00  1.0283E+07  1.2355E+07  0.0000E+00

      CONNECTED LAKE   TIME-STEP         STAGE-CHANGE          PERCENT
 LAKE    INFLUX      SURFACE AREA   TIME STEP  CUMULATIVE    DISCREPANCY
   1   0.0000E+00     6.2500E+06   1.9669E-03 -1.3007E+01       0.000
   2   0.0000E+00     6.2500E+06   3.7910E-03 -1.8109E+01       0.000
 --------------------------------------------------------------------------------



            CUMULATIVE HYDROLOGIC BUDGET SUMMARIES FOR SIMULATED LAKES
     (ALL FLUID FLUXES ARE SUMS OF VOLUMES ADDED TO THE LAKE SINCE INITIAL TIME)
     ---------------------------------------------------------------------------
 LAKE       PRECIP       EVAP       RUNOFF
   1     3.8005E+07  3.3746E+07  0.0000E+00
   2     3.8005E+07  3.3746E+07  0.0000E+00

            GROUND WATER            SURFACE WATER
 LAKE    INFLOW     OUTFLOW      INFLOW     OUTFLOW
   1  8.2147E+07  1.5644E+06  4.8130E+08  6.4743E+08
   2  9.7885E+07  1.4259E+06  7.0315E+08  9.1705E+08

         WATER    CONNECTED LAKE   CHANGE       PERCENT
 LAKE     USE         INFLUX       IN VOL.    DISCREPANCY
   1   0.0000E+00   0.0000E+00  -8.1295E+07      0.000
   2   0.0000E+00   0.0000E+00  -1.1318E+08      0.000
 --------------------------------------------------------------------------------

 
 SOLVING FOR HEAD 
     6 ITERATIONS FOR TIME STEP  95 IN STRESS PERIOD    1

 HEAD/DRAWDOWN PRINTOUT FLAG = 0     TOTAL BUDGET PRINTOUT FLAG = 0
 CELL-BY-CELL FLOW TERM FLAG = 1

 OUTPUT FLAGS FOR ALL LAYERS ARE THE SAME:
   HEAD    DRAWDOWN  HEAD  DRAWDOWN
 PRINTOUT  PRINTOUT  SAVE    SAVE
 ----------------------------------
     0         0       0       0



 STREAM LISTING     PERIOD      1   STEP       95

 LAYER ROW COL. STREAM  RCH.  FLOW INTO     FLOW TO   FLOW OUT OF   OVRLND.     DIRECT     STREAM       STREAM     STREAM     STREAM   STREAMBED  STREAMBED
                SEG.NO.  NO.  STRM. RCH.    AQUIFER    STRM. RCH.    RUNOFF     PRECIP       ET          HEAD       DEPTH      WIDTH   CONDCTNC.   GRADIENT

   1    2    5     1     1    6.9120E+05 -7.9755E+04   7.7096E+05  0.000E+00  0.000E+00  0.000E+00  1.25330E+02  1.382E+00  5.000E+00  5.000E+03 -3.190E+01
   1    3    5     1     2    7.7096E+05 -5.5526E+04   8.2648E+05  0.000E+00  0.000E+00  0.000E+00  1.24302E+02  1.457E+00  5.000E+00  5.000E+03 -2.221E+01
   1    4    5     1     3    8.2648E+05 -5.1581E+04   8.7806E+05  0.000E+00  0.000E+00  0.000E+00  1.23256E+02  1.515E+00  5.000E+00  5.000E+03 -2.063E+01
   1    4    6     1     4    8.7806E+05 -4.2020E+04   9.2008E+05  0.000E+00  0.000E+00  0.000E+00  1.22202E+02  1.564E+00  5.000E+00  5.000E+03 -1.681E+01
   1    4    7     1     5    9.2008E+05 -2.0525E+04   9.4061E+05  0.000E+00  0.000E+00  0.000E+00  1.21407E+02  1.597E+00  5.000E+00  2.500E+03 -1.642E+01
   1    4    8     1     6    9.4061E+05 -3.3780E+04   9.7439E+05  0.000E+00  0.000E+00  0.000E+00  1.20745E+02  1.625E+00  5.000E+00  3.750E+03 -1.802E+01
   1    5    8     1     7    9.7439E+05 -3.4874E+04   1.0093E+06  0.000E+00  0.000E+00  0.000E+00  1.19814E+02  1.659E+00  5.000E+00  5.000E+03 -1.395E+01
   1    6    8     1     8    1.0093E+06 -2.3760E+04   1.0330E+06  0.000E+00  0.000E+00  0.000E+00  1.18740E+02  1.689E+00  5.000E+00  5.000E+03 -9.504E+00
   1   12    9     2     1    1.3117E+06 -2.4617E+04   1.3363E+06  0.000E+00  0.000E+00  0.000E+00  1.16596E+02  2.157E+00  5.000E+00  5.000E+03 -9.847E+00
   1   13    9     2     2    1.3363E+06 -3.8218E+04   1.3745E+06  0.000E+00  0.000E+00  0.000E+00  1.15806E+02  2.187E+00  5.000E+00  5.000E+03 -1.529E+01
   1   14   10     2     3    1.3745E+06 -2.0687E+04   1.3952E+06  0.000E+00  0.000E+00  0.000E+00  1.15195E+02  2.216E+00  5.000E+00  2.795E+03 -1.480E+01
   1   14   10     2     4    1.3952E+06 -2.1912E+04   1.4171E+06  0.000E+00  0.000E+00  0.000E+00  1.14757E+02  2.236E+00  5.000E+00  2.795E+03 -1.568E+01
   1   15   10     2     5    1.4171E+06 -3.6675E+04   1.4538E+06  0.000E+00  0.000E+00  0.000E+00  1.14145E+02  2.264E+00  5.000E+00  5.000E+03 -1.467E+01
   1   16   10     2     6    1.4538E+06 -2.4696E+04   1.4785E+06  0.000E+00  0.000E+00  0.000E+00  1.13353E+02  2.293E+00  5.000E+00  5.000E+03 -9.879E+00
   1   22   10     3     1    1.7774E+06 -2.6165E+04   1.8036E+06  0.000E+00  0.000E+00  0.000E+00  1.11433E+02  2.477E+00  5.000E+00  5.000E+03 -1.047E+01
   1   23   10     3     2    1.8036E+06 -3.8177E+04   1.8417E+06  0.000E+00  0.000E+00  0.000E+00  1.10632E+02  2.504E+00  5.000E+00  3.750E+03 -2.036E+01
   1   23   11     3     3    1.8417E+06 -2.2776E+04   1.8645E+06  0.000E+00  0.000E+00  0.000E+00  1.10065E+02  2.529E+00  5.000E+00  2.500E+03 -1.822E+01
   1   23   12     3     4    1.8645E+06 -4.5430E+04   1.9099E+06  0.000E+00  0.000E+00  0.000E+00  1.09384E+02  2.556E+00  5.000E+00  5.000E+03 -1.817E+01
   1   23   13     3     5    1.9099E+06 -4.9170E+04   1.9591E+06  0.000E+00  0.000E+00  0.000E+00  1.08476E+02  2.595E+00  5.000E+00  5.000E+03 -1.967E+01
   1   23   14     3     6    1.9591E+06 -5.3244E+04   2.0123E+06  0.000E+00  0.000E+00  0.000E+00  1.07572E+02  2.636E+00  5.000E+00  5.000E+03 -2.130E+01
   1   23   15     3     7    2.0123E+06 -6.1051E+04   2.0734E+06  0.000E+00  0.000E+00  0.000E+00  1.06671E+02  2.681E+00  5.000E+00  5.000E+03 -2.442E+01
   1   23   16     3     8    2.0734E+06 -8.9810E+04   2.1632E+06  0.000E+00  0.000E+00  0.000E+00  1.05784E+02  2.740E+00  5.000E+00  5.000E+03 -3.592E+01





     0  LAKE CELLS ARE DRY.

 PERIOD     1     TIME STEP    95     TIME STEP LENGTH  7.0031E+00
 PERIOD TIME  5.3121E+02     TOTAL SIMULATION TIME  5.3121E+02


                 HYDROLOGIC BUDGET SUMMARIES FOR SIMULATED LAKES
     (ALL FLUID FLUXES ARE VOLUMES ADDED TO THE LAKE DURING PRESENT TIME STEP)
     -------------------------------------------------------------------------
 LAKE    STAGE         VOLUME     VOL.CHANGE      PRECIP     EVAPORATION        RUNOFF
   1   116.9945     8.4965E+07    1.1776E+04    5.0772E+05    4.5082E+05    0.0000E+00
   2   111.8946     5.3091E+07    2.2768E+04    5.0772E+05    4.5082E+05    0.0000E+00

            GROUND WATER            SURFACE WATER        WATER
 LAKE    INFLOW     OUTFLOW      INFLOW     OUTFLOW       USE
   1  1.9065E+06  0.0000E+00  7.2343E+06  9.1860E+06  0.0000E+00
   2  2.0590E+06  0.0000E+00  1.0354E+07  1.2447E+07  0.0000E+00

      CONNECTED LAKE   TIME-STEP         STAGE-CHANGE          PERCENT
 LAKE    INFLUX      SURFACE AREA   TIME STEP  CUMULATIVE    DISCREPANCY
   1   0.0000E+00     6.2500E+06   1.8833E-03 -1.3005E+01       0.000
   2   0.0000E+00     6.2500E+06   3.6426E-03 -1.8105E+01       0.000
 --------------------------------------------------------------------------------



            CUMULATIVE HYDROLOGIC BUDGET SUMMARIES FOR SIMULATED LAKES
     (ALL FLUID FLUXES ARE SUMS OF VOLUMES ADDED TO THE LAKE SINCE INITIAL TIME)
     ---------------------------------------------------------------------------
 LAKE       PRECIP       EVAP       RUNOFF
   1     3.8512E+07  3.4196E+07  0.0000E+00
   2     3.8512E+07  3.4196E+07  0.0000E+00

            GROUND WATER            SURFACE WATER
 LAKE    INFLOW     OUTFLOW      INFLOW     OUTFLOW
   1  8.4054E+07  1.5644E+06  4.8853E+08  6.5662E+08
   2  9.9944E+07  1.4259E+06  7.1351E+08  9.2950E+08

         WATER    CONNECTED LAKE   CHANGE       PERCENT
 LAKE     USE         INFLUX       IN VOL.    DISCREPANCY
   1   0.0000E+00   0.0000E+00  -8.1283E+07      0.000
   2   0.0000E+00   0.0000E+00  -1.1316E+08      0.000
 --------------------------------------------------------------------------------

 
 SOLVING FOR HEAD 
     6 ITERATIONS FOR TIME STEP  96 IN STRESS PERIOD    1

 HEAD/DRAWDOWN PRINTOUT FLAG = 0     TOTAL BUDGET PRINTOUT FLAG = 0
 CELL-BY-CELL FLOW TERM FLAG = 1

 OUTPUT FLAGS FOR ALL LAYERS ARE THE SAME:
   HEAD    DRAWDOWN  HEAD  DRAWDOWN
 PRINTOUT  PRINTOUT  SAVE    SAVE
 ----------------------------------
     0         0       0       0



 STREAM LISTING     PERIOD      1   STEP       96

 LAYER ROW COL. STREAM  RCH.  FLOW INTO     FLOW TO   FLOW OUT OF   OVRLND.     DIRECT     STREAM       STREAM     STREAM     STREAM   STREAMBED  STREAMBED
                SEG.NO.  NO.  STRM. RCH.    AQUIFER    STRM. RCH.    RUNOFF     PRECIP       ET          HEAD       DEPTH      WIDTH   CONDCTNC.   GRADIENT

   1    2    5     1     1    6.9120E+05 -7.9771E+04   7.7097E+05  0.000E+00  0.000E+00  0.000E+00  1.25330E+02  1.382E+00  5.000E+00  5.000E+03 -3.191E+01
   1    3    5     1     2    7.7097E+05 -5.5573E+04   8.2654E+05  0.000E+00  0.000E+00  0.000E+00  1.24302E+02  1.457E+00  5.000E+00  5.000E+03 -2.223E+01
   1    4    5     1     3    8.2654E+05 -5.1680E+04   8.7822E+05  0.000E+00  0.000E+00  0.000E+00  1.23256E+02  1.515E+00  5.000E+00  5.000E+03 -2.067E+01
   1    4    6     1     4    8.7822E+05 -4.2107E+04   9.2033E+05  0.000E+00  0.000E+00  0.000E+00  1.22202E+02  1.565E+00  5.000E+00  5.000E+03 -1.684E+01
   1    4    7     1     5    9.2033E+05 -2.0564E+04   9.4090E+05  0.000E+00  0.000E+00  0.000E+00  1.21407E+02  1.597E+00  5.000E+00  2.500E+03 -1.645E+01
   1    4    8     1     6    9.4090E+05 -3.3841E+04   9.7474E+05  0.000E+00  0.000E+00  0.000E+00  1.20746E+02  1.625E+00  5.000E+00  3.750E+03 -1.805E+01
   1    5    8     1     7    9.7474E+05 -3.4980E+04   1.0097E+06  0.000E+00  0.000E+00  0.000E+00  1.19815E+02  1.660E+00  5.000E+00  5.000E+03 -1.399E+01
   1    6    8     1     8    1.0097E+06 -2.3847E+04   1.0336E+06  0.000E+00  0.000E+00  0.000E+00  1.18741E+02  1.689E+00  5.000E+00  5.000E+03 -9.539E+00
   1   12    9     2     1    1.3135E+06 -2.4741E+04   1.3383E+06  0.000E+00  0.000E+00  0.000E+00  1.16598E+02  2.158E+00  5.000E+00  5.000E+03 -9.896E+00
   1   13    9     2     2    1.3383E+06 -3.8434E+04   1.3767E+06  0.000E+00  0.000E+00  0.000E+00  1.15808E+02  2.189E+00  5.000E+00  5.000E+03 -1.537E+01
   1   14   10     2     3    1.3767E+06 -2.0799E+04   1.3975E+06  0.000E+00  0.000E+00  0.000E+00  1.15197E+02  2.218E+00  5.000E+00  2.795E+03 -1.488E+01
   1   14   10     2     4    1.3975E+06 -2.2024E+04   1.4195E+06  0.000E+00  0.000E+00  0.000E+00  1.14759E+02  2.238E+00  5.000E+00  2.795E+03 -1.576E+01
   1   15   10     2     5    1.4195E+06 -3.6870E+04   1.4564E+06  0.000E+00  0.000E+00  0.000E+00  1.14147E+02  2.266E+00  5.000E+00  5.000E+03 -1.475E+01
   1   16   10     2     6    1.4564E+06 -2.4816E+04   1.4812E+06  0.000E+00  0.000E+00  0.000E+00  1.13355E+02  2.295E+00  5.000E+00  5.000E+03 -9.926E+00
   1   22   10     3     1    1.7816E+06 -2.6250E+04   1.8078E+06  0.000E+00  0.000E+00  0.000E+00  1.11436E+02  2.480E+00  5.000E+00  5.000E+03 -1.050E+01
   1   23   10     3     2    1.8078E+06 -3.8278E+04   1.8461E+06  0.000E+00  0.000E+00  0.000E+00  1.10635E+02  2.507E+00  5.000E+00  3.750E+03 -2.041E+01
   1   23   11     3     3    1.8461E+06 -2.2827E+04   1.8690E+06  0.000E+00  0.000E+00  0.000E+00  1.10069E+02  2.532E+00  5.000E+00  2.500E+03 -1.826E+01
   1   23   12     3     4    1.8690E+06 -4.5516E+04   1.9145E+06  0.000E+00  0.000E+00  0.000E+00  1.09388E+02  2.560E+00  5.000E+00  5.000E+03 -1.821E+01
   1   23   13     3     5    1.9145E+06 -4.9252E+04   1.9637E+06  0.000E+00  0.000E+00  0.000E+00  1.08480E+02  2.598E+00  5.000E+00  5.000E+03 -1.970E+01
   1   23   14     3     6    1.9637E+06 -5.3309E+04   2.0170E+06  0.000E+00  0.000E+00  0.000E+00  1.07575E+02  2.639E+00  5.000E+00  5.000E+03 -2.132E+01
   1   23   15     3     7    2.0170E+06 -6.1092E+04   2.0781E+06  0.000E+00  0.000E+00  0.000E+00  1.06675E+02  2.685E+00  5.000E+00  5.000E+03 -2.444E+01
   1   23   16     3     8    2.0781E+06 -8.9821E+04   2.1679E+06  0.000E+00  0.000E+00  0.000E+00  1.05788E+02  2.743E+00  5.000E+00  5.000E+03 -3.593E+01





     0  LAKE CELLS ARE DRY.

 PERIOD     1     TIME STEP    96     TIME STEP LENGTH  7.0381E+00
 PERIOD TIME  5.3824E+02     TOTAL SIMULATION TIME  5.3824E+02


                 HYDROLOGIC BUDGET SUMMARIES FOR SIMULATED LAKES
     (ALL FLUID FLUXES ARE VOLUMES ADDED TO THE LAKE DURING PRESENT TIME STEP)
     -------------------------------------------------------------------------
 LAKE    STAGE         VOLUME     VOL.CHANGE      PRECIP     EVAPORATION        RUNOFF
   1   116.9963     8.4976E+07    1.1232E+04    5.1026E+05    4.5308E+05    0.0000E+00
   2   111.8981     5.3112E+07    2.1840E+04    5.1026E+05    4.5308E+05    0.0000E+00

            GROUND WATER            SURFACE WATER        WATER
 LAKE    INFLOW     OUTFLOW      INFLOW     OUTFLOW       USE
   1  1.9244E+06  0.0000E+00  7.2743E+06  9.2447E+06  0.0000E+00
   2  2.0788E+06  0.0000E+00  1.0425E+07  1.2539E+07  0.0000E+00

      CONNECTED LAKE   TIME-STEP         STAGE-CHANGE          PERCENT
 LAKE    INFLUX      SURFACE AREA   TIME STEP  CUMULATIVE    DISCREPANCY
   1   0.0000E+00     6.2500E+06   1.7982E-03 -1.3004E+01       0.000
   2   0.0000E+00     6.2500E+06   3.4945E-03 -1.8102E+01       0.000
 --------------------------------------------------------------------------------



            CUMULATIVE HYDROLOGIC BUDGET SUMMARIES FOR SIMULATED LAKES
     (ALL FLUID FLUXES ARE SUMS OF VOLUMES ADDED TO THE LAKE SINCE INITIAL TIME)
     ---------------------------------------------------------------------------
 LAKE       PRECIP       EVAP       RUNOFF
   1     3.9023E+07  3.4649E+07  0.0000E+00
   2     3.9023E+07  3.4649E+07  0.0000E+00

            GROUND WATER            SURFACE WATER
 LAKE    INFLOW     OUTFLOW      INFLOW     OUTFLOW
   1  8.5978E+07  1.5644E+06  4.9581E+08  6.6586E+08
   2  1.0202E+08  1.4259E+06  7.2393E+08  9.4204E+08

         WATER    CONNECTED LAKE   CHANGE       PERCENT
 LAKE     USE         INFLUX       IN VOL.    DISCREPANCY
   1   0.0000E+00   0.0000E+00  -8.1272E+07      0.000
   2   0.0000E+00   0.0000E+00  -1.1314E+08      0.000
 --------------------------------------------------------------------------------

 
 SOLVING FOR HEAD 
     6 ITERATIONS FOR TIME STEP  97 IN STRESS PERIOD    1

 HEAD/DRAWDOWN PRINTOUT FLAG = 0     TOTAL BUDGET PRINTOUT FLAG = 0
 CELL-BY-CELL FLOW TERM FLAG = 1

 OUTPUT FLAGS FOR ALL LAYERS ARE THE SAME:
   HEAD    DRAWDOWN  HEAD  DRAWDOWN
 PRINTOUT  PRINTOUT  SAVE    SAVE
 ----------------------------------
     0         0       0       0



 STREAM LISTING     PERIOD      1   STEP       97

 LAYER ROW COL. STREAM  RCH.  FLOW INTO     FLOW TO   FLOW OUT OF   OVRLND.     DIRECT     STREAM       STREAM     STREAM     STREAM   STREAMBED  STREAMBED
                SEG.NO.  NO.  STRM. RCH.    AQUIFER    STRM. RCH.    RUNOFF     PRECIP       ET          HEAD       DEPTH      WIDTH   CONDCTNC.   GRADIENT

   1    2    5     1     1    6.9120E+05 -7.9785E+04   7.7099E+05  0.000E+00  0.000E+00  0.000E+00  1.25330E+02  1.382E+00  5.000E+00  5.000E+03 -3.191E+01
   1    3    5     1     2    7.7099E+05 -5.5617E+04   8.2660E+05  0.000E+00  0.000E+00  0.000E+00  1.24302E+02  1.457E+00  5.000E+00  5.000E+03 -2.225E+01
   1    4    5     1     3    8.2660E+05 -5.1774E+04   8.7838E+05  0.000E+00  0.000E+00  0.000E+00  1.23257E+02  1.515E+00  5.000E+00  5.000E+03 -2.071E+01
   1    4    6     1     4    8.7838E+05 -4.2190E+04   9.2057E+05  0.000E+00  0.000E+00  0.000E+00  1.22203E+02  1.565E+00  5.000E+00  5.000E+03 -1.688E+01
   1    4    7     1     5    9.2057E+05 -2.0601E+04   9.4117E+05  0.000E+00  0.000E+00  0.000E+00  1.21408E+02  1.597E+00  5.000E+00  2.500E+03 -1.648E+01
   1    4    8     1     6    9.4117E+05 -3.3899E+04   9.7507E+05  0.000E+00  0.000E+00  0.000E+00  1.20746E+02  1.625E+00  5.000E+00  3.750E+03 -1.808E+01
   1    5    8     1     7    9.7507E+05 -3.5081E+04   1.0101E+06  0.000E+00  0.000E+00  0.000E+00  1.19815E+02  1.660E+00  5.000E+00  5.000E+03 -1.403E+01
   1    6    8     1     8    1.0101E+06 -2.3929E+04   1.0341E+06  0.000E+00  0.000E+00  0.000E+00  1.18741E+02  1.689E+00  5.000E+00  5.000E+03 -9.572E+00
   1   12    9     2     1    1.3153E+06 -2.4861E+04   1.3401E+06  0.000E+00  0.000E+00  0.000E+00  1.16600E+02  2.160E+00  5.000E+00  5.000E+03 -9.944E+00
   1   13    9     2     2    1.3401E+06 -3.8642E+04   1.3788E+06  0.000E+00  0.000E+00  0.000E+00  1.15810E+02  2.191E+00  5.000E+00  5.000E+03 -1.546E+01
   1   14   10     2     3    1.3788E+06 -2.0908E+04   1.3997E+06  0.000E+00  0.000E+00  0.000E+00  1.15199E+02  2.220E+00  5.000E+00  2.795E+03 -1.496E+01
   1   14   10     2     4    1.3997E+06 -2.2133E+04   1.4218E+06  0.000E+00  0.000E+00  0.000E+00  1.14761E+02  2.240E+00  5.000E+00  2.795E+03 -1.584E+01
   1   15   10     2     5    1.4218E+06 -3.7058E+04   1.4589E+06  0.000E+00  0.000E+00  0.000E+00  1.14149E+02  2.268E+00  5.000E+00  5.000E+03 -1.482E+01
   1   16   10     2     6    1.4589E+06 -2.4932E+04   1.4838E+06  0.000E+00  0.000E+00  0.000E+00  1.13358E+02  2.298E+00  5.000E+00  5.000E+03 -9.973E+00
   1   22   10     3     1    1.7856E+06 -2.6331E+04   1.8120E+06  0.000E+00  0.000E+00  0.000E+00  1.11439E+02  2.484E+00  5.000E+00  5.000E+03 -1.053E+01
   1   23   10     3     2    1.8120E+06 -3.8374E+04   1.8503E+06  0.000E+00  0.000E+00  0.000E+00  1.10639E+02  2.511E+00  5.000E+00  3.750E+03 -2.047E+01
   1   23   11     3     3    1.8503E+06 -2.2875E+04   1.8732E+06  0.000E+00  0.000E+00  0.000E+00  1.10073E+02  2.536E+00  5.000E+00  2.500E+03 -1.830E+01
   1   23   12     3     4    1.8732E+06 -4.5598E+04   1.9188E+06  0.000E+00  0.000E+00  0.000E+00  1.09391E+02  2.564E+00  5.000E+00  5.000E+03 -1.824E+01
   1   23   13     3     5    1.9188E+06 -4.9330E+04   1.9681E+06  0.000E+00  0.000E+00  0.000E+00  1.08484E+02  2.602E+00  5.000E+00  5.000E+03 -1.973E+01
   1   23   14     3     6    1.9681E+06 -5.3372E+04   2.0215E+06  0.000E+00  0.000E+00  0.000E+00  1.07579E+02  2.643E+00  5.000E+00  5.000E+03 -2.135E+01
   1   23   15     3     7    2.0215E+06 -6.1131E+04   2.0826E+06  0.000E+00  0.000E+00  0.000E+00  1.06678E+02  2.688E+00  5.000E+00  5.000E+03 -2.445E+01
   1   23   16     3     8    2.0826E+06 -8.9832E+04   2.1725E+06  0.000E+00  0.000E+00  0.000E+00  1.05791E+02  2.747E+00  5.000E+00  5.000E+03 -3.593E+01





     0  LAKE CELLS ARE DRY.

 PERIOD     1     TIME STEP    97     TIME STEP LENGTH  7.0733E+00
 PERIOD TIME  5.4532E+02     TOTAL SIMULATION TIME  5.4532E+02


                 HYDROLOGIC BUDGET SUMMARIES FOR SIMULATED LAKES
     (ALL FLUID FLUXES ARE VOLUMES ADDED TO THE LAKE DURING PRESENT TIME STEP)
     -------------------------------------------------------------------------
 LAKE    STAGE         VOLUME     VOL.CHANGE      PRECIP     EVAPORATION        RUNOFF
   1   116.9980     8.4987E+07    1.0736E+04    5.1281E+05    4.5534E+05    0.0000E+00
   2   111.9015     5.3133E+07    2.0956E+04    5.1281E+05    4.5534E+05    0.0000E+00

            GROUND WATER            SURFACE WATER        WATER
 LAKE    INFLOW     OUTFLOW      INFLOW     OUTFLOW       USE
   1  1.9422E+06  0.0000E+00  7.3143E+06  9.3032E+06  0.0000E+00
   2  2.0985E+06  0.0000E+00  1.0495E+07  1.2630E+07  0.0000E+00

      CONNECTED LAKE   TIME-STEP         STAGE-CHANGE          PERCENT
 LAKE    INFLUX      SURFACE AREA   TIME STEP  CUMULATIVE    DISCREPANCY
   1   0.0000E+00     6.2500E+06   1.7171E-03 -1.3002E+01       0.000
   2   0.0000E+00     6.2500E+06   3.3530E-03 -1.8099E+01       0.000
 --------------------------------------------------------------------------------



            CUMULATIVE HYDROLOGIC BUDGET SUMMARIES FOR SIMULATED LAKES
     (ALL FLUID FLUXES ARE SUMS OF VOLUMES ADDED TO THE LAKE SINCE INITIAL TIME)
     ---------------------------------------------------------------------------
 LAKE       PRECIP       EVAP       RUNOFF
   1     3.9536E+07  3.5105E+07  0.0000E+00
   2     3.9536E+07  3.5105E+07  0.0000E+00

            GROUND WATER            SURFACE WATER
 LAKE    INFLOW     OUTFLOW      INFLOW     OUTFLOW
   1  8.7920E+07  1.5644E+06  5.0312E+08  6.7517E+08
   2  1.0412E+08  1.4259E+06  7.3443E+08  9.5467E+08

         WATER    CONNECTED LAKE   CHANGE       PERCENT
 LAKE     USE         INFLUX       IN VOL.    DISCREPANCY
   1   0.0000E+00   0.0000E+00  -8.1262E+07      0.000
   2   0.0000E+00   0.0000E+00  -1.1312E+08      0.000
 --------------------------------------------------------------------------------

 
 SOLVING FOR HEAD 
     6 ITERATIONS FOR TIME STEP  98 IN STRESS PERIOD    1

 HEAD/DRAWDOWN PRINTOUT FLAG = 0     TOTAL BUDGET PRINTOUT FLAG = 0
 CELL-BY-CELL FLOW TERM FLAG = 1

 OUTPUT FLAGS FOR ALL LAYERS ARE THE SAME:
   HEAD    DRAWDOWN  HEAD  DRAWDOWN
 PRINTOUT  PRINTOUT  SAVE    SAVE
 ----------------------------------
     0         0       0       0



 STREAM LISTING     PERIOD      1   STEP       98

 LAYER ROW COL. STREAM  RCH.  FLOW INTO     FLOW TO   FLOW OUT OF   OVRLND.     DIRECT     STREAM       STREAM     STREAM     STREAM   STREAMBED  STREAMBED
                SEG.NO.  NO.  STRM. RCH.    AQUIFER    STRM. RCH.    RUNOFF     PRECIP       ET          HEAD       DEPTH      WIDTH   CONDCTNC.   GRADIENT

   1    2    5     1     1    6.9120E+05 -7.9799E+04   7.7100E+05  0.000E+00  0.000E+00  0.000E+00  1.25330E+02  1.382E+00  5.000E+00  5.000E+03 -3.192E+01
   1    3    5     1     2    7.7100E+05 -5.5659E+04   8.2666E+05  0.000E+00  0.000E+00  0.000E+00  1.24302E+02  1.457E+00  5.000E+00  5.000E+03 -2.226E+01
   1    4    5     1     3    8.2666E+05 -5.1863E+04   8.7852E+05  0.000E+00  0.000E+00  0.000E+00  1.23257E+02  1.515E+00  5.000E+00  5.000E+03 -2.075E+01
   1    4    6     1     4    8.7852E+05 -4.2269E+04   9.2079E+05  0.000E+00  0.000E+00  0.000E+00  1.22203E+02  1.565E+00  5.000E+00  5.000E+03 -1.691E+01
   1    4    7     1     5    9.2079E+05 -2.0637E+04   9.4143E+05  0.000E+00  0.000E+00  0.000E+00  1.21408E+02  1.598E+00  5.000E+00  2.500E+03 -1.651E+01
   1    4    8     1     6    9.4143E+05 -3.3954E+04   9.7538E+05  0.000E+00  0.000E+00  0.000E+00  1.20746E+02  1.625E+00  5.000E+00  3.750E+03 -1.811E+01
   1    5    8     1     7    9.7538E+05 -3.5178E+04   1.0106E+06  0.000E+00  0.000E+00  0.000E+00  1.19816E+02  1.660E+00  5.000E+00  5.000E+03 -1.407E+01
   1    6    8     1     8    1.0106E+06 -2.4007E+04   1.0346E+06  0.000E+00  0.000E+00  0.000E+00  1.18742E+02  1.690E+00  5.000E+00  5.000E+03 -9.603E+00
   1   12    9     2     1    1.3169E+06 -2.4976E+04   1.3419E+06  0.000E+00  0.000E+00  0.000E+00  1.16602E+02  2.162E+00  5.000E+00  5.000E+03 -9.990E+00
   1   13    9     2     2    1.3419E+06 -3.8843E+04   1.3807E+06  0.000E+00  0.000E+00  0.000E+00  1.15812E+02  2.193E+00  5.000E+00  5.000E+03 -1.554E+01
   1   14   10     2     3    1.3807E+06 -2.1013E+04   1.4018E+06  0.000E+00  0.000E+00  0.000E+00  1.15201E+02  2.222E+00  5.000E+00  2.795E+03 -1.504E+01
   1   14   10     2     4    1.4018E+06 -2.2238E+04   1.4240E+06  0.000E+00  0.000E+00  0.000E+00  1.14763E+02  2.242E+00  5.000E+00  2.795E+03 -1.591E+01
   1   15   10     2     5    1.4240E+06 -3.7240E+04   1.4612E+06  0.000E+00  0.000E+00  0.000E+00  1.14151E+02  2.271E+00  5.000E+00  5.000E+03 -1.490E+01
   1   16   10     2     6    1.4612E+06 -2.5044E+04   1.4863E+06  0.000E+00  0.000E+00  0.000E+00  1.13360E+02  2.300E+00  5.000E+00  5.000E+03 -1.002E+01
   1   22   10     3     1    1.7895E+06 -2.6409E+04   1.8159E+06  0.000E+00  0.000E+00  0.000E+00  1.11443E+02  2.487E+00  5.000E+00  5.000E+03 -1.056E+01
   1   23   10     3     2    1.8159E+06 -3.8466E+04   1.8544E+06  0.000E+00  0.000E+00  0.000E+00  1.10642E+02  2.514E+00  5.000E+00  3.750E+03 -2.051E+01
   1   23   11     3     3    1.8544E+06 -2.2922E+04   1.8773E+06  0.000E+00  0.000E+00  0.000E+00  1.10076E+02  2.539E+00  5.000E+00  2.500E+03 -1.834E+01
   1   23   12     3     4    1.8773E+06 -4.5677E+04   1.9230E+06  0.000E+00  0.000E+00  0.000E+00  1.09394E+02  2.567E+00  5.000E+00  5.000E+03 -1.827E+01
   1   23   13     3     5    1.9230E+06 -4.9405E+04   1.9724E+06  0.000E+00  0.000E+00  0.000E+00  1.08487E+02  2.605E+00  5.000E+00  5.000E+03 -1.976E+01
   1   23   14     3     6    1.9724E+06 -5.3431E+04   2.0258E+06  0.000E+00  0.000E+00  0.000E+00  1.07582E+02  2.646E+00  5.000E+00  5.000E+03 -2.137E+01
   1   23   15     3     7    2.0258E+06 -6.1168E+04   2.0870E+06  0.000E+00  0.000E+00  0.000E+00  1.06682E+02  2.692E+00  5.000E+00  5.000E+03 -2.447E+01
   1   23   16     3     8    2.0870E+06 -8.9841E+04   2.1768E+06  0.000E+00  0.000E+00  0.000E+00  1.05795E+02  2.750E+00  5.000E+00  5.000E+03 -3.594E+01





     0  LAKE CELLS ARE DRY.

 PERIOD     1     TIME STEP    98     TIME STEP LENGTH  7.1087E+00
 PERIOD TIME  5.5243E+02     TOTAL SIMULATION TIME  5.5243E+02


                 HYDROLOGIC BUDGET SUMMARIES FOR SIMULATED LAKES
     (ALL FLUID FLUXES ARE VOLUMES ADDED TO THE LAKE DURING PRESENT TIME STEP)
     -------------------------------------------------------------------------
 LAKE    STAGE         VOLUME     VOL.CHANGE      PRECIP     EVAPORATION        RUNOFF
   1   116.9997     8.4997E+07    1.0240E+04    5.1538E+05    4.5762E+05    0.0000E+00
   2   111.9047     5.3153E+07    2.0080E+04    5.1538E+05    4.5762E+05    0.0000E+00

            GROUND WATER            SURFACE WATER        WATER
 LAKE    INFLOW     OUTFLOW      INFLOW     OUTFLOW       USE
   1  1.9597E+06  0.0000E+00  7.3544E+06  9.3616E+06  0.0000E+00
   2  2.1179E+06  0.0000E+00  1.0565E+07  1.2721E+07  0.0000E+00

      CONNECTED LAKE   TIME-STEP         STAGE-CHANGE          PERCENT
 LAKE    INFLUX      SURFACE AREA   TIME STEP  CUMULATIVE    DISCREPANCY
   1   0.0000E+00     6.2500E+06   1.6390E-03 -1.3000E+01       0.000
   2   0.0000E+00     6.2500E+06   3.2128E-03 -1.8095E+01       0.000
 --------------------------------------------------------------------------------



            CUMULATIVE HYDROLOGIC BUDGET SUMMARIES FOR SIMULATED LAKES
     (ALL FLUID FLUXES ARE SUMS OF VOLUMES ADDED TO THE LAKE SINCE INITIAL TIME)
     ---------------------------------------------------------------------------
 LAKE       PRECIP       EVAP       RUNOFF
   1     4.0051E+07  3.5562E+07  0.0000E+00
   2     4.0051E+07  3.5562E+07  0.0000E+00

            GROUND WATER            SURFACE WATER
 LAKE    INFLOW     OUTFLOW      INFLOW     OUTFLOW
   1  8.9880E+07  1.5644E+06  5.1047E+08  6.8453E+08
   2  1.0624E+08  1.4259E+06  7.4499E+08  9.6739E+08

         WATER    CONNECTED LAKE   CHANGE       PERCENT
 LAKE     USE         INFLUX       IN VOL.    DISCREPANCY
   1   0.0000E+00   0.0000E+00  -8.1251E+07      0.000
   2   0.0000E+00   0.0000E+00  -1.1309E+08      0.000
 --------------------------------------------------------------------------------

 
 SOLVING FOR HEAD 
     6 ITERATIONS FOR TIME STEP  99 IN STRESS PERIOD    1

 HEAD/DRAWDOWN PRINTOUT FLAG = 0     TOTAL BUDGET PRINTOUT FLAG = 0
 CELL-BY-CELL FLOW TERM FLAG = 1

 OUTPUT FLAGS FOR ALL LAYERS ARE THE SAME:
   HEAD    DRAWDOWN  HEAD  DRAWDOWN
 PRINTOUT  PRINTOUT  SAVE    SAVE
 ----------------------------------
     0         0       0       0



 STREAM LISTING     PERIOD      1   STEP       99

 LAYER ROW COL. STREAM  RCH.  FLOW INTO     FLOW TO   FLOW OUT OF   OVRLND.     DIRECT     STREAM       STREAM     STREAM     STREAM   STREAMBED  STREAMBED
                SEG.NO.  NO.  STRM. RCH.    AQUIFER    STRM. RCH.    RUNOFF     PRECIP       ET          HEAD       DEPTH      WIDTH   CONDCTNC.   GRADIENT

   1    2    5     1     1    6.9120E+05 -7.9812E+04   7.7101E+05  0.000E+00  0.000E+00  0.000E+00  1.25330E+02  1.382E+00  5.000E+00  5.000E+03 -3.192E+01
   1    3    5     1     2    7.7101E+05 -5.5699E+04   8.2671E+05  0.000E+00  0.000E+00  0.000E+00  1.24302E+02  1.457E+00  5.000E+00  5.000E+03 -2.228E+01
   1    4    5     1     3    8.2671E+05 -5.1947E+04   8.7866E+05  0.000E+00  0.000E+00  0.000E+00  1.23257E+02  1.515E+00  5.000E+00  5.000E+03 -2.078E+01
   1    4    6     1     4    8.7866E+05 -4.2345E+04   9.2100E+05  0.000E+00  0.000E+00  0.000E+00  1.22203E+02  1.565E+00  5.000E+00  5.000E+03 -1.694E+01
   1    4    7     1     5    9.2100E+05 -2.0670E+04   9.4167E+05  0.000E+00  0.000E+00  0.000E+00  1.21408E+02  1.598E+00  5.000E+00  2.500E+03 -1.654E+01
   1    4    8     1     6    9.4167E+05 -3.4007E+04   9.7568E+05  0.000E+00  0.000E+00  0.000E+00  1.20746E+02  1.626E+00  5.000E+00  3.750E+03 -1.814E+01
   1    5    8     1     7    9.7568E+05 -3.5269E+04   1.0109E+06  0.000E+00  0.000E+00  0.000E+00  1.19816E+02  1.661E+00  5.000E+00  5.000E+03 -1.411E+01
   1    6    8     1     8    1.0109E+06 -2.4082E+04   1.0350E+06  0.000E+00  0.000E+00  0.000E+00  1.18742E+02  1.690E+00  5.000E+00  5.000E+03 -9.633E+00
   1   12    9     2     1    1.3185E+06 -2.5087E+04   1.3436E+06  0.000E+00  0.000E+00  0.000E+00  1.16603E+02  2.163E+00  5.000E+00  5.000E+03 -1.003E+01
   1   13    9     2     2    1.3436E+06 -3.9037E+04   1.3826E+06  0.000E+00  0.000E+00  0.000E+00  1.15814E+02  2.195E+00  5.000E+00  5.000E+03 -1.561E+01
   1   14   10     2     3    1.3826E+06 -2.1114E+04   1.4038E+06  0.000E+00  0.000E+00  0.000E+00  1.15203E+02  2.224E+00  5.000E+00  2.795E+03 -1.511E+01
   1   14   10     2     4    1.4038E+06 -2.2339E+04   1.4261E+06  0.000E+00  0.000E+00  0.000E+00  1.14765E+02  2.244E+00  5.000E+00  2.795E+03 -1.598E+01
   1   15   10     2     5    1.4261E+06 -3.7415E+04   1.4635E+06  0.000E+00  0.000E+00  0.000E+00  1.14154E+02  2.273E+00  5.000E+00  5.000E+03 -1.497E+01
   1   16   10     2     6    1.4635E+06 -2.5152E+04   1.4887E+06  0.000E+00  0.000E+00  0.000E+00  1.13362E+02  2.302E+00  5.000E+00  5.000E+03 -1.006E+01
   1   22   10     3     1    1.7932E+06 -2.6484E+04   1.8197E+06  0.000E+00  0.000E+00  0.000E+00  1.11446E+02  2.490E+00  5.000E+00  5.000E+03 -1.059E+01
   1   23   10     3     2    1.8197E+06 -3.8553E+04   1.8583E+06  0.000E+00  0.000E+00  0.000E+00  1.10645E+02  2.517E+00  5.000E+00  3.750E+03 -2.056E+01
   1   23   11     3     3    1.8583E+06 -2.2966E+04   1.8812E+06  0.000E+00  0.000E+00  0.000E+00  1.10079E+02  2.542E+00  5.000E+00  2.500E+03 -1.837E+01
   1   23   12     3     4    1.8812E+06 -4.5753E+04   1.9270E+06  0.000E+00  0.000E+00  0.000E+00  1.09398E+02  2.570E+00  5.000E+00  5.000E+03 -1.830E+01
   1   23   13     3     5    1.9270E+06 -4.9476E+04   1.9764E+06  0.000E+00  0.000E+00  0.000E+00  1.08490E+02  2.608E+00  5.000E+00  5.000E+03 -1.979E+01
   1   23   14     3     6    1.9764E+06 -5.3487E+04   2.0299E+06  0.000E+00  0.000E+00  0.000E+00  1.07585E+02  2.650E+00  5.000E+00  5.000E+03 -2.139E+01
   1   23   15     3     7    2.0299E+06 -6.1204E+04   2.0911E+06  0.000E+00  0.000E+00  0.000E+00  1.06685E+02  2.695E+00  5.000E+00  5.000E+03 -2.448E+01
   1   23   16     3     8    2.0911E+06 -8.9851E+04   2.1810E+06  0.000E+00  0.000E+00  0.000E+00  1.05798E+02  2.754E+00  5.000E+00  5.000E+03 -3.594E+01





     0  LAKE CELLS ARE DRY.

 PERIOD     1     TIME STEP    99     TIME STEP LENGTH  7.1442E+00
 PERIOD TIME  5.5957E+02     TOTAL SIMULATION TIME  5.5957E+02


                 HYDROLOGIC BUDGET SUMMARIES FOR SIMULATED LAKES
     (ALL FLUID FLUXES ARE VOLUMES ADDED TO THE LAKE DURING PRESENT TIME STEP)
     -------------------------------------------------------------------------
 LAKE    STAGE         VOLUME     VOL.CHANGE      PRECIP     EVAPORATION        RUNOFF
   1   117.0012     8.5007E+07    9.7200E+03    5.1795E+05    4.5991E+05    0.0000E+00
   2   111.9078     5.3173E+07    1.9276E+04    5.1795E+05    4.5991E+05    0.0000E+00

            GROUND WATER            SURFACE WATER        WATER
 LAKE    INFLOW     OUTFLOW      INFLOW     OUTFLOW       USE
   1  1.9770E+06  0.0000E+00  7.3945E+06  9.4198E+06  0.0000E+00
   2  2.1370E+06  0.0000E+00  1.0635E+07  1.2811E+07  0.0000E+00

      CONNECTED LAKE   TIME-STEP         STAGE-CHANGE          PERCENT
 LAKE    INFLUX      SURFACE AREA   TIME STEP  CUMULATIVE    DISCREPANCY
   1   0.0000E+00     6.2500E+06   1.5542E-03 -1.2999E+01       0.000
   2   0.0000E+00     6.2500E+06   3.0844E-03 -1.8092E+01       0.000
 --------------------------------------------------------------------------------



            CUMULATIVE HYDROLOGIC BUDGET SUMMARIES FOR SIMULATED LAKES
     (ALL FLUID FLUXES ARE SUMS OF VOLUMES ADDED TO THE LAKE SINCE INITIAL TIME)
     ---------------------------------------------------------------------------
 LAKE       PRECIP       EVAP       RUNOFF
   1     4.0569E+07  3.6022E+07  0.0000E+00
   2     4.0569E+07  3.6022E+07  0.0000E+00

            GROUND WATER            SURFACE WATER
 LAKE    INFLOW     OUTFLOW      INFLOW     OUTFLOW
   1  9.1857E+07  1.5644E+06  5.1787E+08  6.9395E+08
   2  1.0838E+08  1.4259E+06  7.5563E+08  9.8020E+08

         WATER    CONNECTED LAKE   CHANGE       PERCENT
 LAKE     USE         INFLUX       IN VOL.    DISCREPANCY
   1   0.0000E+00   0.0000E+00  -8.1242E+07      0.000
   2   0.0000E+00   0.0000E+00  -1.1308E+08      0.000
 --------------------------------------------------------------------------------

 
 SOLVING FOR HEAD 
     6 ITERATIONS FOR TIME STEP 100 IN STRESS PERIOD    1

 HEAD/DRAWDOWN PRINTOUT FLAG = 1     TOTAL BUDGET PRINTOUT FLAG = 1
 CELL-BY-CELL FLOW TERM FLAG = 1

 OUTPUT FLAGS FOR EACH LAYER:
          HEAD    DRAWDOWN  HEAD  DRAWDOWN
 LAYER  PRINTOUT  PRINTOUT  SAVE    SAVE
 -----------------------------------------
    1       0         0       0       0
    2       0         0       0       0
    3       0         0       0       0
    4       0         0       0       0
    5       1         0       0       0



 STREAM LISTING     PERIOD      1   STEP      100

 LAYER ROW COL. STREAM  RCH.  FLOW INTO     FLOW TO   FLOW OUT OF   OVRLND.     DIRECT     STREAM       STREAM     STREAM     STREAM   STREAMBED  STREAMBED
                SEG.NO.  NO.  STRM. RCH.    AQUIFER    STRM. RCH.    RUNOFF     PRECIP       ET          HEAD       DEPTH      WIDTH   CONDCTNC.   GRADIENT

   1    2    5     1     1    6.9120E+05 -7.9824E+04   7.7102E+05  0.000E+00  0.000E+00  0.000E+00  1.25330E+02  1.382E+00  5.000E+00  5.000E+03 -3.193E+01
   1    3    5     1     2    7.7102E+05 -5.5737E+04   8.2676E+05  0.000E+00  0.000E+00  0.000E+00  1.24302E+02  1.457E+00  5.000E+00  5.000E+03 -2.229E+01
   1    4    5     1     3    8.2676E+05 -5.2027E+04   8.7879E+05  0.000E+00  0.000E+00  0.000E+00  1.23257E+02  1.515E+00  5.000E+00  5.000E+03 -2.081E+01
   1    4    6     1     4    8.7879E+05 -4.2416E+04   9.2120E+05  0.000E+00  0.000E+00  0.000E+00  1.22203E+02  1.565E+00  5.000E+00  5.000E+03 -1.697E+01
   1    4    7     1     5    9.2120E+05 -2.0702E+04   9.4191E+05  0.000E+00  0.000E+00  0.000E+00  1.21408E+02  1.598E+00  5.000E+00  2.500E+03 -1.656E+01
   1    4    8     1     6    9.4191E+05 -3.4056E+04   9.7596E+05  0.000E+00  0.000E+00  0.000E+00  1.20747E+02  1.626E+00  5.000E+00  3.750E+03 -1.816E+01
   1    5    8     1     7    9.7596E+05 -3.5356E+04   1.0113E+06  0.000E+00  0.000E+00  0.000E+00  1.19816E+02  1.661E+00  5.000E+00  5.000E+03 -1.414E+01
   1    6    8     1     8    1.0113E+06 -2.4153E+04   1.0355E+06  0.000E+00  0.000E+00  0.000E+00  1.18742E+02  1.691E+00  5.000E+00  5.000E+03 -9.661E+00
   1   12    9     2     1    1.3200E+06 -2.5194E+04   1.3452E+06  0.000E+00  0.000E+00  0.000E+00  1.16605E+02  2.165E+00  5.000E+00  5.000E+03 -1.008E+01
   1   13    9     2     2    1.3452E+06 -3.9224E+04   1.3845E+06  0.000E+00  0.000E+00  0.000E+00  1.15815E+02  2.196E+00  5.000E+00  5.000E+03 -1.569E+01
   1   14   10     2     3    1.3845E+06 -2.1212E+04   1.4057E+06  0.000E+00  0.000E+00  0.000E+00  1.15205E+02  2.225E+00  5.000E+00  2.795E+03 -1.518E+01
   1   14   10     2     4    1.4057E+06 -2.2436E+04   1.4281E+06  0.000E+00  0.000E+00  0.000E+00  1.14767E+02  2.246E+00  5.000E+00  2.795E+03 -1.605E+01
   1   15   10     2     5    1.4281E+06 -3.7585E+04   1.4657E+06  0.000E+00  0.000E+00  0.000E+00  1.14155E+02  2.275E+00  5.000E+00  5.000E+03 -1.503E+01
   1   16   10     2     6    1.4657E+06 -2.5257E+04   1.4909E+06  0.000E+00  0.000E+00  0.000E+00  1.13364E+02  2.304E+00  5.000E+00  5.000E+03 -1.010E+01
   1   22   10     3     1    1.7968E+06 -2.6555E+04   1.8233E+06  0.000E+00  0.000E+00  0.000E+00  1.11449E+02  2.493E+00  5.000E+00  5.000E+03 -1.062E+01
   1   23   10     3     2    1.8233E+06 -3.8636E+04   1.8620E+06  0.000E+00  0.000E+00  0.000E+00  1.10648E+02  2.520E+00  5.000E+00  3.750E+03 -2.061E+01
   1   23   11     3     3    1.8620E+06 -2.3008E+04   1.8850E+06  0.000E+00  0.000E+00  0.000E+00  1.10082E+02  2.545E+00  5.000E+00  2.500E+03 -1.841E+01
   1   23   12     3     4    1.8850E+06 -4.5824E+04   1.9308E+06  0.000E+00  0.000E+00  0.000E+00  1.09401E+02  2.573E+00  5.000E+00  5.000E+03 -1.833E+01
   1   23   13     3     5    1.9308E+06 -4.9543E+04   1.9803E+06  0.000E+00  0.000E+00  0.000E+00  1.08493E+02  2.612E+00  5.000E+00  5.000E+03 -1.982E+01
   1   23   14     3     6    1.9803E+06 -5.3541E+04   2.0339E+06  0.000E+00  0.000E+00  0.000E+00  1.07589E+02  2.653E+00  5.000E+00  5.000E+03 -2.142E+01
   1   23   15     3     7    2.0339E+06 -6.1238E+04   2.0951E+06  0.000E+00  0.000E+00  0.000E+00  1.06688E+02  2.698E+00  5.000E+00  5.000E+03 -2.450E+01
   1   23   16     3     8    2.0951E+06 -8.9860E+04   2.1850E+06  0.000E+00  0.000E+00  0.000E+00  1.05801E+02  2.757E+00  5.000E+00  5.000E+03 -3.594E+01





     0  LAKE CELLS ARE DRY.

 PERIOD     1     TIME STEP   100     TIME STEP LENGTH  7.1799E+00
 PERIOD TIME  5.6675E+02     TOTAL SIMULATION TIME  5.6675E+02


                 HYDROLOGIC BUDGET SUMMARIES FOR SIMULATED LAKES
     (ALL FLUID FLUXES ARE VOLUMES ADDED TO THE LAKE DURING PRESENT TIME STEP)
     -------------------------------------------------------------------------
 LAKE    STAGE         VOLUME     VOL.CHANGE      PRECIP     EVAPORATION        RUNOFF
   1   117.0027     8.5016E+07    9.2240E+03    5.2054E+05    4.6221E+05    0.0000E+00
   2   111.9107     5.3191E+07    1.8460E+04    5.2054E+05    4.6221E+05    0.0000E+00

            GROUND WATER            SURFACE WATER        WATER
 LAKE    INFLOW     OUTFLOW      INFLOW     OUTFLOW       USE
   1  1.9940E+06  0.0000E+00  7.4346E+06  9.4778E+06  0.0000E+00
   2  2.1560E+06  0.0000E+00  1.0705E+07  1.2901E+07  0.0000E+00

      CONNECTED LAKE   TIME-STEP         STAGE-CHANGE          PERCENT
 LAKE    INFLUX      SURFACE AREA   TIME STEP  CUMULATIVE    DISCREPANCY
   1   0.0000E+00     6.2500E+06   1.4760E-03 -1.2997E+01       0.000
   2   0.0000E+00     6.2500E+06   2.9539E-03 -1.8089E+01       0.000
 --------------------------------------------------------------------------------



            CUMULATIVE HYDROLOGIC BUDGET SUMMARIES FOR SIMULATED LAKES
     (ALL FLUID FLUXES ARE SUMS OF VOLUMES ADDED TO THE LAKE SINCE INITIAL TIME)
     ---------------------------------------------------------------------------
 LAKE       PRECIP       EVAP       RUNOFF
   1     4.1089E+07  3.6485E+07  0.0000E+00
   2     4.1089E+07  3.6485E+07  0.0000E+00

            GROUND WATER            SURFACE WATER
 LAKE    INFLOW     OUTFLOW      INFLOW     OUTFLOW
   1  9.3851E+07  1.5644E+06  5.2530E+08  7.0343E+08
   2  1.1053E+08  1.4259E+06  7.6633E+08  9.9310E+08

         WATER    CONNECTED LAKE   CHANGE       PERCENT
 LAKE     USE         INFLUX       IN VOL.    DISCREPANCY
   1   0.0000E+00   0.0000E+00  -8.1232E+07      0.000
   2   0.0000E+00   0.0000E+00  -1.1306E+08      0.000
 --------------------------------------------------------------------------------

1
              HEAD IN LAYER   5 AT END OF TIME STEP 100 IN STRESS PERIOD    1
  ---------------------------------------------------------------------------

          1      2      3      4      5      6      7      8      9     10
 .........................................................................
   1   160.0  158.9  157.3  155.8  154.2  152.7  151.5  150.8  150.0  149.2
   2   160.0  158.1  155.3  151.1  141.3  146.7  147.1  147.1  146.8  146.5
   3   160.0  157.5  153.4  147.4  135.5  139.8  140.6  141.1  141.9  142.5
   4   160.0  157.2  152.7  146.4  133.7  130.7  129.7  129.9  135.0  137.8
   5   160.0  157.2  152.8  147.8  141.2  135.5  130.8  126.9  131.1  134.0
   6   160.0  157.2  153.0  148.5  142.8  135.4  127.9  123.6  125.8  127.7
   7   160.0  157.2  153.1  148.6  142.7  132.8  117.8  117.2  117.3  117.4
   8   160.0  157.2  153.1  148.7  142.6  132.0  117.5  117.0  117.0  117.0
   9   160.0  157.2  153.2  148.7  142.7  131.9  117.5  117.0  117.0  117.0
  10   160.0  157.3  153.2  148.8  142.9  132.3  117.5  117.0  117.0  117.0
  11   160.0  157.3  153.3  149.0  143.4  133.5  117.9  117.3  117.2  117.3
  12   160.0  157.3  153.4  149.3  144.3  137.2  129.7  125.7  121.7  124.4
  13   160.0  157.3  153.5  149.6  145.3  139.8  134.2  129.6  123.7  126.9
  14   160.0  157.3  153.5  149.7  145.5  140.5  135.7  131.9  127.6  122.8
  15   160.0  157.3  153.4  149.5  145.1  139.5  134.3  130.6  126.5  121.7
  16   160.0  157.3  153.3  149.1  143.8  136.0  128.1  124.4  121.4  118.4
  17   160.0  157.3  153.2  148.8  142.7  131.4  113.0  112.3  112.2  112.1
  18   160.0  157.3  153.2  148.7  142.3  129.9  112.5  111.9  111.9  111.9
  19   160.0  157.3  153.2  148.7  142.2  129.6  112.5  111.9  111.9  111.9
  20   160.0  157.3  153.3  148.9  142.5  130.2  112.5  111.9  111.9  111.9
  21   160.0  157.3  153.5  149.2  143.3  132.0  113.1  112.4  112.2  112.1
  22   160.0  157.4  153.8  149.9  144.9  137.5  129.4  125.4  121.5  116.8
  23   160.0  157.6  154.3  150.9  147.2  142.4  137.8  134.1  129.1  121.0
  24   160.0  157.8  154.9  152.1  149.1  145.9  143.1  141.0  138.9  136.7
  25   160.0  158.1  155.6  153.2  150.9  148.5  146.6  145.4  144.1  142.9
  26   160.0  158.5  156.4  154.6  152.8  150.9  149.5  148.6  147.7  146.8
  27   160.0  158.9  157.3  155.8  154.2  152.7  151.5  150.8  150.0  149.2
1
              HEAD IN LAYER   5 AT END OF TIME STEP 100 IN STRESS PERIOD    1
  ---------------------------------------------------------------------------

         11     12     13     14     15     16     17
 ....................................................
   1   148.5  147.3  145.8  144.2  142.7  141.1  140.0
   2   146.1  145.4  144.2  142.9  141.7  140.5  140.0
   3   142.8  142.9  142.4  141.6  140.7  140.0  140.0
   4   139.3  140.5  140.8  140.5  140.1  139.8  140.0
   5   135.9  138.0  139.3  139.6  139.6  139.6  140.0
   6   129.9  134.5  137.6  138.8  139.2  139.5  140.0
   7   117.8  130.7  136.4  138.3  138.9  139.4  140.0
   8   117.4  129.4  135.8  138.1  138.8  139.3  140.0
   9   117.4  128.9  135.6  137.9  138.8  139.3  140.0
  10   117.4  129.0  135.5  137.8  138.7  139.3  140.0
  11   117.7  129.8  135.8  137.9  138.7  139.3  140.0
  12   127.2  132.6  136.4  138.0  138.7  139.3  140.0
  13   130.0  134.0  136.9  138.1  138.7  139.3  140.0
  14   128.3  133.6  136.7  138.1  138.7  139.3  140.0
  15   126.8  132.5  136.1  137.7  138.5  139.2  140.0
  16   122.8  129.8  134.9  137.1  138.2  139.1  140.0
  17   112.7  126.3  133.7  136.5  137.8  138.9  140.0
  18   112.3  125.0  132.9  135.9  137.4  138.7  140.0
  19   112.3  124.2  132.2  135.2  136.8  138.4  140.0
  20   112.3  123.7  131.3  134.2  135.9  137.9  140.0
  21   112.5  123.5  130.0  132.8  134.5  137.1  140.0
  22   119.3  123.5  127.3  129.4  131.1  134.7  140.0
  23   119.3  118.6  118.4  118.3  119.0  123.8  140.0
  24   135.2  133.7  132.6  132.0  132.4  135.1  140.0
  25   141.8  140.5  139.1  138.1  137.7  138.5  140.0
  26   146.0  144.8  143.3  141.9  140.8  140.1  140.0
  27   148.5  147.3  145.8  144.2  142.7  141.1  140.0
1
  VOLUMETRIC BUDGET FOR ENTIRE MODEL AT END OF TIME STEP100 IN STRESS PERIOD   1
  ------------------------------------------------------------------------------

     CUMULATIVE VOLUMES      L**3       RATES FOR THIS TIME STEP      L**3/T
     ------------------                 ------------------------

           IN:                                      IN:
           ---                                      ---
             STORAGE =     2934567.7500               STORAGE =           0.0000
       CONSTANT HEAD =   797456640.0000         CONSTANT HEAD =      583807.7500
                  ET =           0.0000                    ET =           0.0000
            RECHARGE =  1561397248.0000              RECHARGE =     2755000.0000
     SPECIFIED FLOWS =           0.0000       SPECIFIED FLOWS =           0.0000
      STREAM LEAKAGE =     3694574.2500        STREAM LEAKAGE =           0.0000
       LAKE  SEEPAGE =     2990331.7500         LAKE  SEEPAGE =           0.0000

            TOTAL IN =  2368473344.0000              TOTAL IN =     3338807.7500

          OUT:                                     OUT:
          ----                                     ----
             STORAGE =  1241775744.0000               STORAGE =      224320.6562
       CONSTANT HEAD =      445258.7188         CONSTANT HEAD =        2187.6877
                  ET =   540369344.0000                    ET =     1630891.2500
            RECHARGE =           0.0000              RECHARGE =           0.0000
     SPECIFIED FLOWS =           0.0000       SPECIFIED FLOWS =           0.0000
      STREAM LEAKAGE =   381494944.0000        STREAM LEAKAGE =      903381.8750
       LAKE  SEEPAGE =   204383456.0000         LAKE  SEEPAGE =      578006.0625

           TOTAL OUT =  2368468736.0000             TOTAL OUT =     3338787.5000

            IN - OUT =        4608.0000              IN - OUT =          20.2500

 PERCENT DISCREPANCY =           0.00     PERCENT DISCREPANCY =           0.00






          TIME SUMMARY AT END OF TIME STEP 100 IN STRESS PERIOD    1
                    SECONDS     MINUTES      HOURS       DAYS        YEARS
                    -----------------------------------------------------------
   TIME STEP LENGTH 6.20346E+05  10339.      172.32      7.1799     1.96576E-02
 STRESS PERIOD TIME 4.89672E+07 8.16120E+05  13602.      566.75      1.5517    
         TOTAL TIME 4.89672E+07 8.16120E+05  13602.      566.75      1.5517    
1
 
 SOLVING FOR HEAD 
     6 ITERATIONS FOR TIME STEP 101 IN STRESS PERIOD    1

 HEAD/DRAWDOWN PRINTOUT FLAG = 0     TOTAL BUDGET PRINTOUT FLAG = 1
 CELL-BY-CELL FLOW TERM FLAG = 1

 OUTPUT FLAGS FOR ALL LAYERS ARE THE SAME:
   HEAD    DRAWDOWN  HEAD  DRAWDOWN
 PRINTOUT  PRINTOUT  SAVE    SAVE
 ----------------------------------
     0         0       0       0



 STREAM LISTING     PERIOD      1   STEP      101

 LAYER ROW COL. STREAM  RCH.  FLOW INTO     FLOW TO   FLOW OUT OF   OVRLND.     DIRECT     STREAM       STREAM     STREAM     STREAM   STREAMBED  STREAMBED
                SEG.NO.  NO.  STRM. RCH.    AQUIFER    STRM. RCH.    RUNOFF     PRECIP       ET          HEAD       DEPTH      WIDTH   CONDCTNC.   GRADIENT

   1    2    5     1     1    6.9120E+05 -7.9836E+04   7.7104E+05  0.000E+00  0.000E+00  0.000E+00  1.25330E+02  1.382E+00  5.000E+00  5.000E+03 -3.193E+01
   1    3    5     1     2    7.7104E+05 -5.5772E+04   8.2681E+05  0.000E+00  0.000E+00  0.000E+00  1.24302E+02  1.457E+00  5.000E+00  5.000E+03 -2.231E+01
   1    4    5     1     3    8.2681E+05 -5.2102E+04   8.7891E+05  0.000E+00  0.000E+00  0.000E+00  1.23257E+02  1.516E+00  5.000E+00  5.000E+03 -2.084E+01
   1    4    6     1     4    8.7891E+05 -4.2483E+04   9.2139E+05  0.000E+00  0.000E+00  0.000E+00  1.22203E+02  1.565E+00  5.000E+00  5.000E+03 -1.699E+01
   1    4    7     1     5    9.2139E+05 -2.0732E+04   9.4213E+05  0.000E+00  0.000E+00  0.000E+00  1.21409E+02  1.598E+00  5.000E+00  2.500E+03 -1.659E+01
   1    4    8     1     6    9.4213E+05 -3.4103E+04   9.7623E+05  0.000E+00  0.000E+00  0.000E+00  1.20747E+02  1.626E+00  5.000E+00  3.750E+03 -1.819E+01
   1    5    8     1     7    9.7623E+05 -3.5438E+04   1.0117E+06  0.000E+00  0.000E+00  0.000E+00  1.19817E+02  1.661E+00  5.000E+00  5.000E+03 -1.418E+01
   1    6    8     1     8    1.0117E+06 -2.4220E+04   1.0359E+06  0.000E+00  0.000E+00  0.000E+00  1.18743E+02  1.691E+00  5.000E+00  5.000E+03 -9.688E+00
   1   12    9     2     1    1.3215E+06 -2.5296E+04   1.3468E+06  0.000E+00  0.000E+00  0.000E+00  1.16606E+02  2.166E+00  5.000E+00  5.000E+03 -1.012E+01
   1   13    9     2     2    1.3468E+06 -3.9403E+04   1.3862E+06  0.000E+00  0.000E+00  0.000E+00  1.15817E+02  2.198E+00  5.000E+00  5.000E+03 -1.576E+01
   1   14   10     2     3    1.3862E+06 -2.1306E+04   1.4075E+06  0.000E+00  0.000E+00  0.000E+00  1.15206E+02  2.227E+00  5.000E+00  2.795E+03 -1.525E+01
   1   14   10     2     4    1.4075E+06 -2.2530E+04   1.4300E+06  0.000E+00  0.000E+00  0.000E+00  1.14769E+02  2.248E+00  5.000E+00  2.795E+03 -1.612E+01
   1   15   10     2     5    1.4300E+06 -3.7747E+04   1.4678E+06  0.000E+00  0.000E+00  0.000E+00  1.14157E+02  2.276E+00  5.000E+00  5.000E+03 -1.510E+01
   1   16   10     2     6    1.4678E+06 -2.5358E+04   1.4931E+06  0.000E+00  0.000E+00  0.000E+00  1.13366E+02  2.306E+00  5.000E+00  5.000E+03 -1.014E+01
   1   22   10     3     1    1.8002E+06 -2.6623E+04   1.8268E+06  0.000E+00  0.000E+00  0.000E+00  1.11452E+02  2.496E+00  5.000E+00  5.000E+03 -1.065E+01
   1   23   10     3     2    1.8268E+06 -3.8715E+04   1.8655E+06  0.000E+00  0.000E+00  0.000E+00  1.10651E+02  2.523E+00  5.000E+00  3.750E+03 -2.065E+01
   1   23   11     3     3    1.8655E+06 -2.3048E+04   1.8886E+06  0.000E+00  0.000E+00  0.000E+00  1.10085E+02  2.548E+00  5.000E+00  2.500E+03 -1.844E+01
   1   23   12     3     4    1.8886E+06 -4.5893E+04   1.9345E+06  0.000E+00  0.000E+00  0.000E+00  1.09404E+02  2.576E+00  5.000E+00  5.000E+03 -1.836E+01
   1   23   13     3     5    1.9345E+06 -4.9608E+04   1.9841E+06  0.000E+00  0.000E+00  0.000E+00  1.08496E+02  2.614E+00  5.000E+00  5.000E+03 -1.984E+01
   1   23   14     3     6    1.9841E+06 -5.3592E+04   2.0377E+06  0.000E+00  0.000E+00  0.000E+00  1.07592E+02  2.656E+00  5.000E+00  5.000E+03 -2.144E+01
   1   23   15     3     7    2.0377E+06 -6.1270E+04   2.0989E+06  0.000E+00  0.000E+00  0.000E+00  1.06691E+02  2.701E+00  5.000E+00  5.000E+03 -2.451E+01
   1   23   16     3     8    2.0989E+06 -8.9869E+04   2.1888E+06  0.000E+00  0.000E+00  0.000E+00  1.05804E+02  2.760E+00  5.000E+00  5.000E+03 -3.595E+01





     0  LAKE CELLS ARE DRY.

 PERIOD     1     TIME STEP   101     TIME STEP LENGTH  7.2158E+00
 PERIOD TIME  5.7397E+02     TOTAL SIMULATION TIME  5.7397E+02


                 HYDROLOGIC BUDGET SUMMARIES FOR SIMULATED LAKES
     (ALL FLUID FLUXES ARE VOLUMES ADDED TO THE LAKE DURING PRESENT TIME STEP)
     -------------------------------------------------------------------------
 LAKE    STAGE         VOLUME     VOL.CHANGE      PRECIP     EVAPORATION        RUNOFF
   1   117.0041     8.5025E+07    8.7440E+03    5.2315E+05    4.6452E+05    0.0000E+00
   2   111.9136     5.3209E+07    1.7640E+04    5.2315E+05    4.6452E+05    0.0000E+00

            GROUND WATER            SURFACE WATER        WATER
 LAKE    INFLOW     OUTFLOW      INFLOW     OUTFLOW       USE
   1  2.0109E+06  0.0000E+00  7.4748E+06  9.5355E+06  0.0000E+00
   2  2.1747E+06  0.0000E+00  1.0774E+07  1.2990E+07  0.0000E+00

      CONNECTED LAKE   TIME-STEP         STAGE-CHANGE          PERCENT
 LAKE    INFLUX      SURFACE AREA   TIME STEP  CUMULATIVE    DISCREPANCY
   1   0.0000E+00     6.2500E+06   1.3993E-03 -1.2996E+01       0.000
   2   0.0000E+00     6.2500E+06   2.8222E-03 -1.8086E+01       0.000
 --------------------------------------------------------------------------------



            CUMULATIVE HYDROLOGIC BUDGET SUMMARIES FOR SIMULATED LAKES
     (ALL FLUID FLUXES ARE SUMS OF VOLUMES ADDED TO THE LAKE SINCE INITIAL TIME)
     ---------------------------------------------------------------------------
 LAKE       PRECIP       EVAP       RUNOFF
   1     4.1613E+07  3.6949E+07  0.0000E+00
   2     4.1613E+07  3.6949E+07  0.0000E+00

            GROUND WATER            SURFACE WATER
 LAKE    INFLOW     OUTFLOW      INFLOW     OUTFLOW
   1  9.5862E+07  1.5644E+06  5.3278E+08  7.1296E+08
   2  1.1271E+08  1.4259E+06  7.7711E+08  1.0061E+09

         WATER    CONNECTED LAKE   CHANGE       PERCENT
 LAKE     USE         INFLUX       IN VOL.    DISCREPANCY
   1   0.0000E+00   0.0000E+00  -8.1224E+07      0.000
   2   0.0000E+00   0.0000E+00  -1.1304E+08      0.000
 --------------------------------------------------------------------------------

1
  VOLUMETRIC BUDGET FOR ENTIRE MODEL AT END OF TIME STEP101 IN STRESS PERIOD   1
  ------------------------------------------------------------------------------

     CUMULATIVE VOLUMES      L**3       RATES FOR THIS TIME STEP      L**3/T
     ------------------                 ------------------------

           IN:                                      IN:
           ---                                      ---
             STORAGE =     2934567.7500               STORAGE =           0.0000
       CONSTANT HEAD =   801653184.0000         CONSTANT HEAD =      581578.0625
                  ET =           0.0000                    ET =           0.0000
            RECHARGE =  1581276800.0000              RECHARGE =     2755000.0000
     SPECIFIED FLOWS =           0.0000       SPECIFIED FLOWS =           0.0000
      STREAM LEAKAGE =     3694574.2500        STREAM LEAKAGE =           0.0000
       LAKE  SEEPAGE =     2990331.7500         LAKE  SEEPAGE =           0.0000

            TOTAL IN =  2392549376.0000              TOTAL IN =     3336578.0000

          OUT:                                     OUT:
          ----                                     ----
             STORAGE =  1243313024.0000               STORAGE =      213043.8281
       CONSTANT HEAD =      461271.6250         CONSTANT HEAD =        2219.1379
                  ET =   552176576.0000                    ET =     1636295.7500
            RECHARGE =           0.0000              RECHARGE =           0.0000
     SPECIFIED FLOWS =           0.0000       SPECIFIED FLOWS =           0.0000
      STREAM LEAKAGE =   388024864.0000        STREAM LEAKAGE =      904945.1875
       LAKE  SEEPAGE =   208569040.0000         LAKE  SEEPAGE =      580056.0000

           TOTAL OUT =  2392544768.0000             TOTAL OUT =     3336560.0000

            IN - OUT =        4608.0000              IN - OUT =          18.0000

 PERCENT DISCREPANCY =           0.00     PERCENT DISCREPANCY =           0.00






          TIME SUMMARY AT END OF TIME STEP 101 IN STRESS PERIOD    1
                    SECONDS     MINUTES      HOURS       DAYS        YEARS
                    -----------------------------------------------------------
   TIME STEP LENGTH 6.23447E+05  10391.      173.18      7.2158     1.97559E-02
 STRESS PERIOD TIME 4.95907E+07 8.26511E+05  13775.      573.97      1.5714    
         TOTAL TIME 4.95907E+07 8.26511E+05  13775.      573.97      1.5714    
1
 
 SOLVING FOR HEAD 
     6 ITERATIONS FOR TIME STEP 102 IN STRESS PERIOD    1

 HEAD/DRAWDOWN PRINTOUT FLAG = 0     TOTAL BUDGET PRINTOUT FLAG = 0
 CELL-BY-CELL FLOW TERM FLAG = 1

 OUTPUT FLAGS FOR ALL LAYERS ARE THE SAME:
   HEAD    DRAWDOWN  HEAD  DRAWDOWN
 PRINTOUT  PRINTOUT  SAVE    SAVE
 ----------------------------------
     0         0       0       0



 STREAM LISTING     PERIOD      1   STEP      102

 LAYER ROW COL. STREAM  RCH.  FLOW INTO     FLOW TO   FLOW OUT OF   OVRLND.     DIRECT     STREAM       STREAM     STREAM     STREAM   STREAMBED  STREAMBED
                SEG.NO.  NO.  STRM. RCH.    AQUIFER    STRM. RCH.    RUNOFF     PRECIP       ET          HEAD       DEPTH      WIDTH   CONDCTNC.   GRADIENT

   1    2    5     1     1    6.9120E+05 -7.9847E+04   7.7105E+05  0.000E+00  0.000E+00  0.000E+00  1.25330E+02  1.382E+00  5.000E+00  5.000E+03 -3.194E+01
   1    3    5     1     2    7.7105E+05 -5.5806E+04   8.2685E+05  0.000E+00  0.000E+00  0.000E+00  1.24302E+02  1.457E+00  5.000E+00  5.000E+03 -2.232E+01
   1    4    5     1     3    8.2685E+05 -5.2174E+04   8.7903E+05  0.000E+00  0.000E+00  0.000E+00  1.23257E+02  1.516E+00  5.000E+00  5.000E+03 -2.087E+01
   1    4    6     1     4    8.7903E+05 -4.2548E+04   9.2157E+05  0.000E+00  0.000E+00  0.000E+00  1.22204E+02  1.566E+00  5.000E+00  5.000E+03 -1.702E+01
   1    4    7     1     5    9.2157E+05 -2.0761E+04   9.4234E+05  0.000E+00  0.000E+00  0.000E+00  1.21409E+02  1.598E+00  5.000E+00  2.500E+03 -1.661E+01
   1    4    8     1     6    9.4234E+05 -3.4147E+04   9.7648E+05  0.000E+00  0.000E+00  0.000E+00  1.20747E+02  1.627E+00  5.000E+00  3.750E+03 -1.821E+01
   1    5    8     1     7    9.7648E+05 -3.5517E+04   1.0120E+06  0.000E+00  0.000E+00  0.000E+00  1.19817E+02  1.662E+00  5.000E+00  5.000E+03 -1.421E+01
   1    6    8     1     8    1.0120E+06 -2.4284E+04   1.0363E+06  0.000E+00  0.000E+00  0.000E+00  1.18743E+02  1.691E+00  5.000E+00  5.000E+03 -9.714E+00
   1   12    9     2     1    1.3229E+06 -2.5395E+04   1.3482E+06  0.000E+00  0.000E+00  0.000E+00  1.16608E+02  2.168E+00  5.000E+00  5.000E+03 -1.016E+01
   1   13    9     2     2    1.3482E+06 -3.9576E+04   1.3878E+06  0.000E+00  0.000E+00  0.000E+00  1.15818E+02  2.199E+00  5.000E+00  5.000E+03 -1.583E+01
   1   14   10     2     3    1.3878E+06 -2.1397E+04   1.4092E+06  0.000E+00  0.000E+00  0.000E+00  1.15208E+02  2.229E+00  5.000E+00  2.795E+03 -1.531E+01
   1   14   10     2     4    1.4092E+06 -2.2620E+04   1.4318E+06  0.000E+00  0.000E+00  0.000E+00  1.14770E+02  2.250E+00  5.000E+00  2.795E+03 -1.619E+01
   1   15   10     2     5    1.4318E+06 -3.7904E+04   1.4697E+06  0.000E+00  0.000E+00  0.000E+00  1.14159E+02  2.278E+00  5.000E+00  5.000E+03 -1.516E+01
   1   16   10     2     6    1.4697E+06 -2.5455E+04   1.4952E+06  0.000E+00  0.000E+00  0.000E+00  1.13368E+02  2.308E+00  5.000E+00  5.000E+03 -1.018E+01
   1   22   10     3     1    1.8034E+06 -2.6688E+04   1.8301E+06  0.000E+00  0.000E+00  0.000E+00  1.11454E+02  2.499E+00  5.000E+00  5.000E+03 -1.068E+01
   1   23   10     3     2    1.8301E+06 -3.8790E+04   1.8689E+06  0.000E+00  0.000E+00  0.000E+00  1.10654E+02  2.526E+00  5.000E+00  3.750E+03 -2.069E+01
   1   23   11     3     3    1.8689E+06 -2.3086E+04   1.8920E+06  0.000E+00  0.000E+00  0.000E+00  1.10088E+02  2.551E+00  5.000E+00  2.500E+03 -1.847E+01
   1   23   12     3     4    1.8920E+06 -4.5959E+04   1.9380E+06  0.000E+00  0.000E+00  0.000E+00  1.09406E+02  2.579E+00  5.000E+00  5.000E+03 -1.838E+01
   1   23   13     3     5    1.9380E+06 -4.9670E+04   1.9876E+06  0.000E+00  0.000E+00  0.000E+00  1.08499E+02  2.617E+00  5.000E+00  5.000E+03 -1.987E+01
   1   23   14     3     6    1.9876E+06 -5.3640E+04   2.0413E+06  0.000E+00  0.000E+00  0.000E+00  1.07594E+02  2.658E+00  5.000E+00  5.000E+03 -2.146E+01
   1   23   15     3     7    2.0413E+06 -6.1301E+04   2.1026E+06  0.000E+00  0.000E+00  0.000E+00  1.06694E+02  2.704E+00  5.000E+00  5.000E+03 -2.452E+01
   1   23   16     3     8    2.1026E+06 -8.9877E+04   2.1924E+06  0.000E+00  0.000E+00  0.000E+00  1.05807E+02  2.762E+00  5.000E+00  5.000E+03 -3.595E+01





     0  LAKE CELLS ARE DRY.

 PERIOD     1     TIME STEP   102     TIME STEP LENGTH  7.2519E+00
 PERIOD TIME  5.8122E+02     TOTAL SIMULATION TIME  5.8122E+02


                 HYDROLOGIC BUDGET SUMMARIES FOR SIMULATED LAKES
     (ALL FLUID FLUXES ARE VOLUMES ADDED TO THE LAKE DURING PRESENT TIME STEP)
     -------------------------------------------------------------------------
 LAKE    STAGE         VOLUME     VOL.CHANGE      PRECIP     EVAPORATION        RUNOFF
   1   117.0054     8.5033E+07    8.3440E+03    5.2576E+05    4.6684E+05    0.0000E+00
   2   111.9163     5.3226E+07    1.6884E+04    5.2576E+05    4.6684E+05    0.0000E+00

            GROUND WATER            SURFACE WATER        WATER
 LAKE    INFLOW     OUTFLOW      INFLOW     OUTFLOW       USE
   1  2.0276E+06  0.0000E+00  7.5150E+06  9.5932E+06  0.0000E+00
   2  2.1933E+06  0.0000E+00  1.0843E+07  1.3078E+07  0.0000E+00

      CONNECTED LAKE   TIME-STEP         STAGE-CHANGE          PERCENT
 LAKE    INFLUX      SURFACE AREA   TIME STEP  CUMULATIVE    DISCREPANCY
   1   0.0000E+00     6.2500E+06   1.3346E-03 -1.2995E+01       0.000
   2   0.0000E+00     6.2500E+06   2.7016E-03 -1.8084E+01       0.000
 --------------------------------------------------------------------------------



            CUMULATIVE HYDROLOGIC BUDGET SUMMARIES FOR SIMULATED LAKES
     (ALL FLUID FLUXES ARE SUMS OF VOLUMES ADDED TO THE LAKE SINCE INITIAL TIME)
     ---------------------------------------------------------------------------
 LAKE       PRECIP       EVAP       RUNOFF
   1     4.2138E+07  3.7416E+07  0.0000E+00
   2     4.2138E+07  3.7416E+07  0.0000E+00

            GROUND WATER            SURFACE WATER
 LAKE    INFLOW     OUTFLOW      INFLOW     OUTFLOW
   1  9.7889E+07  1.5644E+06  5.4029E+08  7.2256E+08
   2  1.1490E+08  1.4259E+06  7.8795E+08  1.0192E+09

         WATER    CONNECTED LAKE   CHANGE       PERCENT
 LAKE     USE         INFLUX       IN VOL.    DISCREPANCY
   1   0.0000E+00   0.0000E+00  -8.1215E+07      0.000
   2   0.0000E+00   0.0000E+00  -1.1302E+08      0.000
 --------------------------------------------------------------------------------

 
 SOLVING FOR HEAD 
     6 ITERATIONS FOR TIME STEP 103 IN STRESS PERIOD    1

 HEAD/DRAWDOWN PRINTOUT FLAG = 0     TOTAL BUDGET PRINTOUT FLAG = 0
 CELL-BY-CELL FLOW TERM FLAG = 1

 OUTPUT FLAGS FOR ALL LAYERS ARE THE SAME:
   HEAD    DRAWDOWN  HEAD  DRAWDOWN
 PRINTOUT  PRINTOUT  SAVE    SAVE
 ----------------------------------
     0         0       0       0



 STREAM LISTING     PERIOD      1   STEP      103

 LAYER ROW COL. STREAM  RCH.  FLOW INTO     FLOW TO   FLOW OUT OF   OVRLND.     DIRECT     STREAM       STREAM     STREAM     STREAM   STREAMBED  STREAMBED
                SEG.NO.  NO.  STRM. RCH.    AQUIFER    STRM. RCH.    RUNOFF     PRECIP       ET          HEAD       DEPTH      WIDTH   CONDCTNC.   GRADIENT

   1    2    5     1     1    6.9120E+05 -7.9858E+04   7.7106E+05  0.000E+00  0.000E+00  0.000E+00  1.25330E+02  1.382E+00  5.000E+00  5.000E+03 -3.194E+01
   1    3    5     1     2    7.7106E+05 -5.5838E+04   8.2690E+05  0.000E+00  0.000E+00  0.000E+00  1.24302E+02  1.457E+00  5.000E+00  5.000E+03 -2.234E+01
   1    4    5     1     3    8.2690E+05 -5.2241E+04   8.7914E+05  0.000E+00  0.000E+00  0.000E+00  1.23257E+02  1.516E+00  5.000E+00  5.000E+03 -2.090E+01
   1    4    6     1     4    8.7914E+05 -4.2608E+04   9.2175E+05  0.000E+00  0.000E+00  0.000E+00  1.22204E+02  1.566E+00  5.000E+00  5.000E+03 -1.704E+01
   1    4    7     1     5    9.2175E+05 -2.0788E+04   9.4253E+05  0.000E+00  0.000E+00  0.000E+00  1.21409E+02  1.599E+00  5.000E+00  2.500E+03 -1.663E+01
   1    4    8     1     6    9.4253E+05 -3.4188E+04   9.7672E+05  0.000E+00  0.000E+00  0.000E+00  1.20747E+02  1.627E+00  5.000E+00  3.750E+03 -1.823E+01
   1    5    8     1     7    9.7672E+05 -3.5591E+04   1.0123E+06  0.000E+00  0.000E+00  0.000E+00  1.19817E+02  1.662E+00  5.000E+00  5.000E+03 -1.424E+01
   1    6    8     1     8    1.0123E+06 -2.4345E+04   1.0367E+06  0.000E+00  0.000E+00  0.000E+00  1.18744E+02  1.692E+00  5.000E+00  5.000E+03 -9.738E+00
   1   12    9     2     1    1.3242E+06 -2.5489E+04   1.3496E+06  0.000E+00  0.000E+00  0.000E+00  1.16609E+02  2.169E+00  5.000E+00  5.000E+03 -1.020E+01
   1   13    9     2     2    1.3496E+06 -3.9742E+04   1.3894E+06  0.000E+00  0.000E+00  0.000E+00  1.15820E+02  2.201E+00  5.000E+00  5.000E+03 -1.590E+01
   1   14   10     2     3    1.3894E+06 -2.1484E+04   1.4109E+06  0.000E+00  0.000E+00  0.000E+00  1.15210E+02  2.230E+00  5.000E+00  2.795E+03 -1.537E+01
   1   14   10     2     4    1.4109E+06 -2.2707E+04   1.4336E+06  0.000E+00  0.000E+00  0.000E+00  1.14772E+02  2.251E+00  5.000E+00  2.795E+03 -1.625E+01
   1   15   10     2     5    1.4336E+06 -3.8054E+04   1.4716E+06  0.000E+00  0.000E+00  0.000E+00  1.14161E+02  2.280E+00  5.000E+00  5.000E+03 -1.522E+01
   1   16   10     2     6    1.4716E+06 -2.5549E+04   1.4972E+06  0.000E+00  0.000E+00  0.000E+00  1.13370E+02  2.310E+00  5.000E+00  5.000E+03 -1.022E+01
   1   22   10     3     1    1.8065E+06 -2.6750E+04   1.8333E+06  0.000E+00  0.000E+00  0.000E+00  1.11457E+02  2.501E+00  5.000E+00  5.000E+03 -1.070E+01
   1   23   10     3     2    1.8333E+06 -3.8862E+04   1.8721E+06  0.000E+00  0.000E+00  0.000E+00  1.10656E+02  2.528E+00  5.000E+00  3.750E+03 -2.073E+01
   1   23   11     3     3    1.8721E+06 -2.3123E+04   1.8953E+06  0.000E+00  0.000E+00  0.000E+00  1.10090E+02  2.554E+00  5.000E+00  2.500E+03 -1.850E+01
   1   23   12     3     4    1.8953E+06 -4.6021E+04   1.9413E+06  0.000E+00  0.000E+00  0.000E+00  1.09409E+02  2.582E+00  5.000E+00  5.000E+03 -1.841E+01
   1   23   13     3     5    1.9413E+06 -4.9729E+04   1.9910E+06  0.000E+00  0.000E+00  0.000E+00  1.08502E+02  2.620E+00  5.000E+00  5.000E+03 -1.989E+01
   1   23   14     3     6    1.9910E+06 -5.3686E+04   2.0447E+06  0.000E+00  0.000E+00  0.000E+00  1.07597E+02  2.661E+00  5.000E+00  5.000E+03 -2.147E+01
   1   23   15     3     7    2.0447E+06 -6.1330E+04   2.1060E+06  0.000E+00  0.000E+00  0.000E+00  1.06697E+02  2.706E+00  5.000E+00  5.000E+03 -2.453E+01
   1   23   16     3     8    2.1060E+06 -8.9885E+04   2.1959E+06  0.000E+00  0.000E+00  0.000E+00  1.05809E+02  2.765E+00  5.000E+00  5.000E+03 -3.595E+01





     0  LAKE CELLS ARE DRY.

 PERIOD     1     TIME STEP   103     TIME STEP LENGTH  7.2882E+00
 PERIOD TIME  5.8851E+02     TOTAL SIMULATION TIME  5.8851E+02


                 HYDROLOGIC BUDGET SUMMARIES FOR SIMULATED LAKES
     (ALL FLUID FLUXES ARE VOLUMES ADDED TO THE LAKE DURING PRESENT TIME STEP)
     -------------------------------------------------------------------------
 LAKE    STAGE         VOLUME     VOL.CHANGE      PRECIP     EVAPORATION        RUNOFF
   1   117.0067     8.5041E+07    7.9200E+03    5.2839E+05    4.6918E+05    0.0000E+00
   2   111.9188     5.3242E+07    1.6116E+04    5.2839E+05    4.6918E+05    0.0000E+00

            GROUND WATER            SURFACE WATER        WATER
 LAKE    INFLOW     OUTFLOW      INFLOW     OUTFLOW       USE
   1  2.0440E+06  0.0000E+00  7.5553E+06  9.6507E+06  0.0000E+00
   2  2.2116E+06  0.0000E+00  1.0912E+07  1.3166E+07  0.0000E+00

      CONNECTED LAKE   TIME-STEP         STAGE-CHANGE          PERCENT
 LAKE    INFLUX      SURFACE AREA   TIME STEP  CUMULATIVE    DISCREPANCY
   1   0.0000E+00     6.2500E+06   1.2679E-03 -1.2993E+01       0.000
   2   0.0000E+00     6.2500E+06   2.5787E-03 -1.8081E+01       0.000
 --------------------------------------------------------------------------------



            CUMULATIVE HYDROLOGIC BUDGET SUMMARIES FOR SIMULATED LAKES
     (ALL FLUID FLUXES ARE SUMS OF VOLUMES ADDED TO THE LAKE SINCE INITIAL TIME)
     ---------------------------------------------------------------------------
 LAKE       PRECIP       EVAP       RUNOFF
   1     4.2667E+07  3.7885E+07  0.0000E+00
   2     4.2667E+07  3.7885E+07  0.0000E+00

            GROUND WATER            SURFACE WATER
 LAKE    INFLOW     OUTFLOW      INFLOW     OUTFLOW
   1  9.9933E+07  1.5644E+06  5.4785E+08  7.3221E+08
   2  1.1711E+08  1.4259E+06  7.9886E+08  1.0323E+09

         WATER    CONNECTED LAKE   CHANGE       PERCENT
 LAKE     USE         INFLUX       IN VOL.    DISCREPANCY
   1   0.0000E+00   0.0000E+00  -8.1207E+07      0.000
   2   0.0000E+00   0.0000E+00  -1.1301E+08      0.000
 --------------------------------------------------------------------------------

 
 SOLVING FOR HEAD 
     6 ITERATIONS FOR TIME STEP 104 IN STRESS PERIOD    1

 HEAD/DRAWDOWN PRINTOUT FLAG = 0     TOTAL BUDGET PRINTOUT FLAG = 0
 CELL-BY-CELL FLOW TERM FLAG = 1

 OUTPUT FLAGS FOR ALL LAYERS ARE THE SAME:
   HEAD    DRAWDOWN  HEAD  DRAWDOWN
 PRINTOUT  PRINTOUT  SAVE    SAVE
 ----------------------------------
     0         0       0       0



 STREAM LISTING     PERIOD      1   STEP      104

 LAYER ROW COL. STREAM  RCH.  FLOW INTO     FLOW TO   FLOW OUT OF   OVRLND.     DIRECT     STREAM       STREAM     STREAM     STREAM   STREAMBED  STREAMBED
                SEG.NO.  NO.  STRM. RCH.    AQUIFER    STRM. RCH.    RUNOFF     PRECIP       ET          HEAD       DEPTH      WIDTH   CONDCTNC.   GRADIENT

   1    2    5     1     1    6.9120E+05 -7.9868E+04   7.7107E+05  0.000E+00  0.000E+00  0.000E+00  1.25330E+02  1.382E+00  5.000E+00  5.000E+03 -3.195E+01
   1    3    5     1     2    7.7107E+05 -5.5868E+04   8.2694E+05  0.000E+00  0.000E+00  0.000E+00  1.24302E+02  1.457E+00  5.000E+00  5.000E+03 -2.235E+01
   1    4    5     1     3    8.2694E+05 -5.2306E+04   8.7924E+05  0.000E+00  0.000E+00  0.000E+00  1.23257E+02  1.516E+00  5.000E+00  5.000E+03 -2.092E+01
   1    4    6     1     4    8.7924E+05 -4.2666E+04   9.2191E+05  0.000E+00  0.000E+00  0.000E+00  1.22204E+02  1.566E+00  5.000E+00  5.000E+03 -1.707E+01
   1    4    7     1     5    9.2191E+05 -2.0814E+04   9.4272E+05  0.000E+00  0.000E+00  0.000E+00  1.21409E+02  1.599E+00  5.000E+00  2.500E+03 -1.665E+01
   1    4    8     1     6    9.4272E+05 -3.4227E+04   9.7695E+05  0.000E+00  0.000E+00  0.000E+00  1.20748E+02  1.627E+00  5.000E+00  3.750E+03 -1.825E+01
   1    5    8     1     7    9.7695E+05 -3.5661E+04   1.0126E+06  0.000E+00  0.000E+00  0.000E+00  1.19817E+02  1.662E+00  5.000E+00  5.000E+03 -1.426E+01
   1    6    8     1     8    1.0126E+06 -2.4402E+04   1.0370E+06  0.000E+00  0.000E+00  0.000E+00  1.18744E+02  1.692E+00  5.000E+00  5.000E+03 -9.761E+00
   1   12    9     2     1    1.3254E+06 -2.5580E+04   1.3510E+06  0.000E+00  0.000E+00  0.000E+00  1.16610E+02  2.170E+00  5.000E+00  5.000E+03 -1.023E+01
   1   13    9     2     2    1.3510E+06 -3.9901E+04   1.3909E+06  0.000E+00  0.000E+00  0.000E+00  1.15821E+02  2.202E+00  5.000E+00  5.000E+03 -1.596E+01
   1   14   10     2     3    1.3909E+06 -2.1567E+04   1.4124E+06  0.000E+00  0.000E+00  0.000E+00  1.15211E+02  2.232E+00  5.000E+00  2.795E+03 -1.543E+01
   1   14   10     2     4    1.4124E+06 -2.2790E+04   1.4352E+06  0.000E+00  0.000E+00  0.000E+00  1.14773E+02  2.253E+00  5.000E+00  2.795E+03 -1.631E+01
   1   15   10     2     5    1.4352E+06 -3.8198E+04   1.4734E+06  0.000E+00  0.000E+00  0.000E+00  1.14163E+02  2.282E+00  5.000E+00  5.000E+03 -1.528E+01
   1   16   10     2     6    1.4734E+06 -2.5639E+04   1.4991E+06  0.000E+00  0.000E+00  0.000E+00  1.13372E+02  2.311E+00  5.000E+00  5.000E+03 -1.026E+01
   1   22   10     3     1    1.8095E+06 -2.6809E+04   1.8363E+06  0.000E+00  0.000E+00  0.000E+00  1.11459E+02  2.504E+00  5.000E+00  5.000E+03 -1.072E+01
   1   23   10     3     2    1.8363E+06 -3.8930E+04   1.8752E+06  0.000E+00  0.000E+00  0.000E+00  1.10659E+02  2.531E+00  5.000E+00  3.750E+03 -2.076E+01
   1   23   11     3     3    1.8752E+06 -2.3157E+04   1.8984E+06  0.000E+00  0.000E+00  0.000E+00  1.10093E+02  2.556E+00  5.000E+00  2.500E+03 -1.853E+01
   1   23   12     3     4    1.8984E+06 -4.6081E+04   1.9445E+06  0.000E+00  0.000E+00  0.000E+00  1.09412E+02  2.584E+00  5.000E+00  5.000E+03 -1.843E+01
   1   23   13     3     5    1.9445E+06 -4.9785E+04   1.9943E+06  0.000E+00  0.000E+00  0.000E+00  1.08504E+02  2.623E+00  5.000E+00  5.000E+03 -1.991E+01
   1   23   14     3     6    1.9943E+06 -5.3730E+04   2.0480E+06  0.000E+00  0.000E+00  0.000E+00  1.07600E+02  2.664E+00  5.000E+00  5.000E+03 -2.149E+01
   1   23   15     3     7    2.0480E+06 -6.1358E+04   2.1094E+06  0.000E+00  0.000E+00  0.000E+00  1.06699E+02  2.709E+00  5.000E+00  5.000E+03 -2.454E+01
   1   23   16     3     8    2.1094E+06 -8.9892E+04   2.1992E+06  0.000E+00  0.000E+00  0.000E+00  1.05812E+02  2.768E+00  5.000E+00  5.000E+03 -3.596E+01





     0  LAKE CELLS ARE DRY.

 PERIOD     1     TIME STEP   104     TIME STEP LENGTH  7.3246E+00
 PERIOD TIME  5.9583E+02     TOTAL SIMULATION TIME  5.9583E+02


                 HYDROLOGIC BUDGET SUMMARIES FOR SIMULATED LAKES
     (ALL FLUID FLUXES ARE VOLUMES ADDED TO THE LAKE DURING PRESENT TIME STEP)
     -------------------------------------------------------------------------
 LAKE    STAGE         VOLUME     VOL.CHANGE      PRECIP     EVAPORATION        RUNOFF
   1   117.0079     8.5049E+07    7.5440E+03    5.3103E+05    4.7152E+05    0.0000E+00
   2   111.9213     5.3257E+07    1.5392E+04    5.3103E+05    4.7152E+05    0.0000E+00

            GROUND WATER            SURFACE WATER        WATER
 LAKE    INFLOW     OUTFLOW      INFLOW     OUTFLOW       USE
   1  2.0603E+06  0.0000E+00  7.5957E+06  9.7080E+06  0.0000E+00
   2  2.2297E+06  0.0000E+00  1.0980E+07  1.3254E+07  0.0000E+00

      CONNECTED LAKE   TIME-STEP         STAGE-CHANGE          PERCENT
 LAKE    INFLUX      SURFACE AREA   TIME STEP  CUMULATIVE    DISCREPANCY
   1   0.0000E+00     6.2500E+06   1.2063E-03 -1.2992E+01       0.000
   2   0.0000E+00     6.2500E+06   2.4629E-03 -1.8079E+01       0.000
 --------------------------------------------------------------------------------



            CUMULATIVE HYDROLOGIC BUDGET SUMMARIES FOR SIMULATED LAKES
     (ALL FLUID FLUXES ARE SUMS OF VOLUMES ADDED TO THE LAKE SINCE INITIAL TIME)
     ---------------------------------------------------------------------------
 LAKE       PRECIP       EVAP       RUNOFF
   1     4.3198E+07  3.8357E+07  0.0000E+00
   2     4.3198E+07  3.8357E+07  0.0000E+00

            GROUND WATER            SURFACE WATER
 LAKE    INFLOW     OUTFLOW      INFLOW     OUTFLOW
   1  1.0199E+08  1.5644E+06  5.5544E+08  7.4191E+08
   2  1.1934E+08  1.4259E+06  8.0984E+08  1.0456E+09

         WATER    CONNECTED LAKE   CHANGE       PERCENT
 LAKE     USE         INFLUX       IN VOL.    DISCREPANCY
   1   0.0000E+00   0.0000E+00  -8.1200E+07      0.000
   2   0.0000E+00   0.0000E+00  -1.1299E+08      0.000
 --------------------------------------------------------------------------------

 
 SOLVING FOR HEAD 
     6 ITERATIONS FOR TIME STEP 105 IN STRESS PERIOD    1

 HEAD/DRAWDOWN PRINTOUT FLAG = 0     TOTAL BUDGET PRINTOUT FLAG = 0
 CELL-BY-CELL FLOW TERM FLAG = 1

 OUTPUT FLAGS FOR ALL LAYERS ARE THE SAME:
   HEAD    DRAWDOWN  HEAD  DRAWDOWN
 PRINTOUT  PRINTOUT  SAVE    SAVE
 ----------------------------------
     0         0       0       0



 STREAM LISTING     PERIOD      1   STEP      105

 LAYER ROW COL. STREAM  RCH.  FLOW INTO     FLOW TO   FLOW OUT OF   OVRLND.     DIRECT     STREAM       STREAM     STREAM     STREAM   STREAMBED  STREAMBED
                SEG.NO.  NO.  STRM. RCH.    AQUIFER    STRM. RCH.    RUNOFF     PRECIP       ET          HEAD       DEPTH      WIDTH   CONDCTNC.   GRADIENT

   1    2    5     1     1    6.9120E+05 -7.9877E+04   7.7108E+05  0.000E+00  0.000E+00  0.000E+00  1.25330E+02  1.382E+00  5.000E+00  5.000E+03 -3.195E+01
   1    3    5     1     2    7.7108E+05 -5.5897E+04   8.2697E+05  0.000E+00  0.000E+00  0.000E+00  1.24302E+02  1.457E+00  5.000E+00  5.000E+03 -2.236E+01
   1    4    5     1     3    8.2697E+05 -5.2366E+04   8.7934E+05  0.000E+00  0.000E+00  0.000E+00  1.23257E+02  1.516E+00  5.000E+00  5.000E+03 -2.095E+01
   1    4    6     1     4    8.7934E+05 -4.2721E+04   9.2206E+05  0.000E+00  0.000E+00  0.000E+00  1.22204E+02  1.566E+00  5.000E+00  5.000E+03 -1.709E+01
   1    4    7     1     5    9.2206E+05 -2.0838E+04   9.4290E+05  0.000E+00  0.000E+00  0.000E+00  1.21409E+02  1.599E+00  5.000E+00  2.500E+03 -1.667E+01
   1    4    8     1     6    9.4290E+05 -3.4265E+04   9.7716E+05  0.000E+00  0.000E+00  0.000E+00  1.20748E+02  1.627E+00  5.000E+00  3.750E+03 -1.827E+01
   1    5    8     1     7    9.7716E+05 -3.5728E+04   1.0129E+06  0.000E+00  0.000E+00  0.000E+00  1.19818E+02  1.662E+00  5.000E+00  5.000E+03 -1.429E+01
   1    6    8     1     8    1.0129E+06 -2.4457E+04   1.0373E+06  0.000E+00  0.000E+00  0.000E+00  1.18744E+02  1.692E+00  5.000E+00  5.000E+03 -9.783E+00
   1   12    9     2     1    1.3266E+06 -2.5666E+04   1.3522E+06  0.000E+00  0.000E+00  0.000E+00  1.16611E+02  2.172E+00  5.000E+00  5.000E+03 -1.027E+01
   1   13    9     2     2    1.3522E+06 -4.0054E+04   1.3923E+06  0.000E+00  0.000E+00  0.000E+00  1.15822E+02  2.203E+00  5.000E+00  5.000E+03 -1.602E+01
   1   14   10     2     3    1.3923E+06 -2.1647E+04   1.4139E+06  0.000E+00  0.000E+00  0.000E+00  1.15212E+02  2.233E+00  5.000E+00  2.795E+03 -1.549E+01
   1   14   10     2     4    1.4139E+06 -2.2870E+04   1.4368E+06  0.000E+00  0.000E+00  0.000E+00  1.14775E+02  2.254E+00  5.000E+00  2.795E+03 -1.637E+01
   1   15   10     2     5    1.4368E+06 -3.8337E+04   1.4752E+06  0.000E+00  0.000E+00  0.000E+00  1.14164E+02  2.283E+00  5.000E+00  5.000E+03 -1.533E+01
   1   16   10     2     6    1.4752E+06 -2.5725E+04   1.5009E+06  0.000E+00  0.000E+00  0.000E+00  1.13373E+02  2.313E+00  5.000E+00  5.000E+03 -1.029E+01
   1   22   10     3     1    1.8123E+06 -2.6865E+04   1.8392E+06  0.000E+00  0.000E+00  0.000E+00  1.11462E+02  2.506E+00  5.000E+00  5.000E+03 -1.075E+01
   1   23   10     3     2    1.8392E+06 -3.8995E+04   1.8782E+06  0.000E+00  0.000E+00  0.000E+00  1.10661E+02  2.533E+00  5.000E+00  3.750E+03 -2.080E+01
   1   23   11     3     3    1.8782E+06 -2.3191E+04   1.9014E+06  0.000E+00  0.000E+00  0.000E+00  1.10095E+02  2.558E+00  5.000E+00  2.500E+03 -1.855E+01
   1   23   12     3     4    1.9014E+06 -4.6138E+04   1.9475E+06  0.000E+00  0.000E+00  0.000E+00  1.09414E+02  2.587E+00  5.000E+00  5.000E+03 -1.846E+01
   1   23   13     3     5    1.9475E+06 -4.9838E+04   1.9974E+06  0.000E+00  0.000E+00  0.000E+00  1.08507E+02  2.625E+00  5.000E+00  5.000E+03 -1.994E+01
   1   23   14     3     6    1.9974E+06 -5.3771E+04   2.0511E+06  0.000E+00  0.000E+00  0.000E+00  1.07602E+02  2.666E+00  5.000E+00  5.000E+03 -2.151E+01
   1   23   15     3     7    2.0511E+06 -6.1385E+04   2.1125E+06  0.000E+00  0.000E+00  0.000E+00  1.06702E+02  2.711E+00  5.000E+00  5.000E+03 -2.455E+01
   1   23   16     3     8    2.1125E+06 -8.9899E+04   2.2024E+06  0.000E+00  0.000E+00  0.000E+00  1.05814E+02  2.770E+00  5.000E+00  5.000E+03 -3.596E+01





     0  LAKE CELLS ARE DRY.

 PERIOD     1     TIME STEP   105     TIME STEP LENGTH  7.3612E+00
 PERIOD TIME  6.0319E+02     TOTAL SIMULATION TIME  6.0319E+02


                 HYDROLOGIC BUDGET SUMMARIES FOR SIMULATED LAKES
     (ALL FLUID FLUXES ARE VOLUMES ADDED TO THE LAKE DURING PRESENT TIME STEP)
     -------------------------------------------------------------------------
 LAKE    STAGE         VOLUME     VOL.CHANGE      PRECIP     EVAPORATION        RUNOFF
   1   117.0091     8.5056E+07    7.1760E+03    5.3369E+05    4.7388E+05    0.0000E+00
   2   111.9237     5.3272E+07    1.4692E+04    5.3369E+05    4.7388E+05    0.0000E+00

            GROUND WATER            SURFACE WATER        WATER
 LAKE    INFLOW     OUTFLOW      INFLOW     OUTFLOW       USE
   1  2.0765E+06  0.0000E+00  7.6362E+06  9.7653E+06  0.0000E+00
   2  2.2476E+06  0.0000E+00  1.1048E+07  1.3341E+07  0.0000E+00

      CONNECTED LAKE   TIME-STEP         STAGE-CHANGE          PERCENT
 LAKE    INFLUX      SURFACE AREA   TIME STEP  CUMULATIVE    DISCREPANCY
   1   0.0000E+00     6.2500E+06   1.1490E-03 -1.2991E+01       0.000
   2   0.0000E+00     6.2500E+06   2.3508E-03 -1.8076E+01       0.000
 --------------------------------------------------------------------------------



            CUMULATIVE HYDROLOGIC BUDGET SUMMARIES FOR SIMULATED LAKES
     (ALL FLUID FLUXES ARE SUMS OF VOLUMES ADDED TO THE LAKE SINCE INITIAL TIME)
     ---------------------------------------------------------------------------
 LAKE       PRECIP       EVAP       RUNOFF
   1     4.3731E+07  3.8830E+07  0.0000E+00
   2     4.3731E+07  3.8830E+07  0.0000E+00

            GROUND WATER            SURFACE WATER
 LAKE    INFLOW     OUTFLOW      INFLOW     OUTFLOW
   1  1.0407E+08  1.5644E+06  5.6308E+08  7.5168E+08
   2  1.2159E+08  1.4259E+06  8.2089E+08  1.0589E+09

         WATER    CONNECTED LAKE   CHANGE       PERCENT
 LAKE     USE         INFLUX       IN VOL.    DISCREPANCY
   1   0.0000E+00   0.0000E+00  -8.1193E+07      0.000
   2   0.0000E+00   0.0000E+00  -1.1298E+08      0.000
 --------------------------------------------------------------------------------

 
 SOLVING FOR HEAD 
     6 ITERATIONS FOR TIME STEP 106 IN STRESS PERIOD    1

 HEAD/DRAWDOWN PRINTOUT FLAG = 0     TOTAL BUDGET PRINTOUT FLAG = 0
 CELL-BY-CELL FLOW TERM FLAG = 1

 OUTPUT FLAGS FOR ALL LAYERS ARE THE SAME:
   HEAD    DRAWDOWN  HEAD  DRAWDOWN
 PRINTOUT  PRINTOUT  SAVE    SAVE
 ----------------------------------
     0         0       0       0



 STREAM LISTING     PERIOD      1   STEP      106

 LAYER ROW COL. STREAM  RCH.  FLOW INTO     FLOW TO   FLOW OUT OF   OVRLND.     DIRECT     STREAM       STREAM     STREAM     STREAM   STREAMBED  STREAMBED
                SEG.NO.  NO.  STRM. RCH.    AQUIFER    STRM. RCH.    RUNOFF     PRECIP       ET          HEAD       DEPTH      WIDTH   CONDCTNC.   GRADIENT

   1    2    5     1     1    6.9120E+05 -7.9886E+04   7.7109E+05  0.000E+00  0.000E+00  0.000E+00  1.25330E+02  1.382E+00  5.000E+00  5.000E+03 -3.195E+01
   1    3    5     1     2    7.7109E+05 -5.5924E+04   8.2701E+05  0.000E+00  0.000E+00  0.000E+00  1.24302E+02  1.457E+00  5.000E+00  5.000E+03 -2.237E+01
   1    4    5     1     3    8.2701E+05 -5.2424E+04   8.7943E+05  0.000E+00  0.000E+00  0.000E+00  1.23257E+02  1.516E+00  5.000E+00  5.000E+03 -2.097E+01
   1    4    6     1     4    8.7943E+05 -4.2772E+04   9.2221E+05  0.000E+00  0.000E+00  0.000E+00  1.22204E+02  1.566E+00  5.000E+00  5.000E+03 -1.711E+01
   1    4    7     1     5    9.2221E+05 -2.0861E+04   9.4307E+05  0.000E+00  0.000E+00  0.000E+00  1.21409E+02  1.599E+00  5.000E+00  2.500E+03 -1.669E+01
   1    4    8     1     6    9.4307E+05 -3.4300E+04   9.7737E+05  0.000E+00  0.000E+00  0.000E+00  1.20748E+02  1.627E+00  5.000E+00  3.750E+03 -1.829E+01
   1    5    8     1     7    9.7737E+05 -3.5791E+04   1.0132E+06  0.000E+00  0.000E+00  0.000E+00  1.19818E+02  1.663E+00  5.000E+00  5.000E+03 -1.432E+01
   1    6    8     1     8    1.0132E+06 -2.4509E+04   1.0377E+06  0.000E+00  0.000E+00  0.000E+00  1.18744E+02  1.693E+00  5.000E+00  5.000E+03 -9.804E+00
   1   12    9     2     1    1.3277E+06 -2.5750E+04   1.3535E+06  0.000E+00  0.000E+00  0.000E+00  1.16612E+02  2.173E+00  5.000E+00  5.000E+03 -1.030E+01
   1   13    9     2     2    1.3535E+06 -4.0201E+04   1.3937E+06  0.000E+00  0.000E+00  0.000E+00  1.15824E+02  2.205E+00  5.000E+00  5.000E+03 -1.608E+01
   1   14   10     2     3    1.3937E+06 -2.1724E+04   1.4154E+06  0.000E+00  0.000E+00  0.000E+00  1.15214E+02  2.234E+00  5.000E+00  2.795E+03 -1.555E+01
   1   14   10     2     4    1.4154E+06 -2.2947E+04   1.4383E+06  0.000E+00  0.000E+00  0.000E+00  1.14776E+02  2.256E+00  5.000E+00  2.795E+03 -1.642E+01
   1   15   10     2     5    1.4383E+06 -3.8470E+04   1.4768E+06  0.000E+00  0.000E+00  0.000E+00  1.14166E+02  2.285E+00  5.000E+00  5.000E+03 -1.539E+01
   1   16   10     2     6    1.4768E+06 -2.5808E+04   1.5026E+06  0.000E+00  0.000E+00  0.000E+00  1.13375E+02  2.315E+00  5.000E+00  5.000E+03 -1.032E+01
   1   22   10     3     1    1.8150E+06 -2.6918E+04   1.8420E+06  0.000E+00  0.000E+00  0.000E+00  1.11464E+02  2.508E+00  5.000E+00  5.000E+03 -1.077E+01
   1   23   10     3     2    1.8420E+06 -3.9056E+04   1.8810E+06  0.000E+00  0.000E+00  0.000E+00  1.10664E+02  2.535E+00  5.000E+00  3.750E+03 -2.083E+01
   1   23   11     3     3    1.8810E+06 -2.3222E+04   1.9042E+06  0.000E+00  0.000E+00  0.000E+00  1.10098E+02  2.561E+00  5.000E+00  2.500E+03 -1.858E+01
   1   23   12     3     4    1.9042E+06 -4.6192E+04   1.9504E+06  0.000E+00  0.000E+00  0.000E+00  1.09416E+02  2.589E+00  5.000E+00  5.000E+03 -1.848E+01
   1   23   13     3     5    1.9504E+06 -4.9889E+04   2.0003E+06  0.000E+00  0.000E+00  0.000E+00  1.08509E+02  2.627E+00  5.000E+00  5.000E+03 -1.996E+01
   1   23   14     3     6    2.0003E+06 -5.3811E+04   2.0541E+06  0.000E+00  0.000E+00  0.000E+00  1.07604E+02  2.669E+00  5.000E+00  5.000E+03 -2.152E+01
   1   23   15     3     7    2.0541E+06 -6.1410E+04   2.1155E+06  0.000E+00  0.000E+00  0.000E+00  1.06704E+02  2.714E+00  5.000E+00  5.000E+03 -2.456E+01
   1   23   16     3     8    2.1155E+06 -8.9906E+04   2.2054E+06  0.000E+00  0.000E+00  0.000E+00  1.05817E+02  2.772E+00  5.000E+00  5.000E+03 -3.596E+01





     0  LAKE CELLS ARE DRY.

 PERIOD     1     TIME STEP   106     TIME STEP LENGTH  7.3980E+00
 PERIOD TIME  6.1059E+02     TOTAL SIMULATION TIME  6.1059E+02


                 HYDROLOGIC BUDGET SUMMARIES FOR SIMULATED LAKES
     (ALL FLUID FLUXES ARE VOLUMES ADDED TO THE LAKE DURING PRESENT TIME STEP)
     -------------------------------------------------------------------------
 LAKE    STAGE         VOLUME     VOL.CHANGE      PRECIP     EVAPORATION        RUNOFF
   1   117.0102     8.5063E+07    6.8320E+03    5.3636E+05    4.7625E+05    0.0000E+00
   2   111.9259     5.3286E+07    1.4032E+04    5.3636E+05    4.7625E+05    0.0000E+00

            GROUND WATER            SURFACE WATER        WATER
 LAKE    INFLOW     OUTFLOW      INFLOW     OUTFLOW       USE
   1  2.0924E+06  0.0000E+00  7.6767E+06  9.8224E+06  0.0000E+00
   2  2.2653E+06  0.0000E+00  1.1116E+07  1.3428E+07  0.0000E+00

      CONNECTED LAKE   TIME-STEP         STAGE-CHANGE          PERCENT
 LAKE    INFLUX      SURFACE AREA   TIME STEP  CUMULATIVE    DISCREPANCY
   1   0.0000E+00     6.2500E+06   1.0927E-03 -1.2990E+01       0.000
   2   0.0000E+00     6.2500E+06   2.2451E-03 -1.8074E+01       0.000
 --------------------------------------------------------------------------------



            CUMULATIVE HYDROLOGIC BUDGET SUMMARIES FOR SIMULATED LAKES
     (ALL FLUID FLUXES ARE SUMS OF VOLUMES ADDED TO THE LAKE SINCE INITIAL TIME)
     ---------------------------------------------------------------------------
 LAKE       PRECIP       EVAP       RUNOFF
   1     4.4268E+07  3.9307E+07  0.0000E+00
   2     4.4268E+07  3.9307E+07  0.0000E+00

            GROUND WATER            SURFACE WATER
 LAKE    INFLOW     OUTFLOW      INFLOW     OUTFLOW
   1  1.0616E+08  1.5644E+06  5.7076E+08  7.6150E+08
   2  1.2385E+08  1.4259E+06  8.3201E+08  1.0724E+09

         WATER    CONNECTED LAKE   CHANGE       PERCENT
 LAKE     USE         INFLUX       IN VOL.    DISCREPANCY
   1   0.0000E+00   0.0000E+00  -8.1186E+07      0.000
   2   0.0000E+00   0.0000E+00  -1.1296E+08      0.000
 --------------------------------------------------------------------------------

 
 SOLVING FOR HEAD 
     6 ITERATIONS FOR TIME STEP 107 IN STRESS PERIOD    1

 HEAD/DRAWDOWN PRINTOUT FLAG = 0     TOTAL BUDGET PRINTOUT FLAG = 0
 CELL-BY-CELL FLOW TERM FLAG = 1

 OUTPUT FLAGS FOR ALL LAYERS ARE THE SAME:
   HEAD    DRAWDOWN  HEAD  DRAWDOWN
 PRINTOUT  PRINTOUT  SAVE    SAVE
 ----------------------------------
     0         0       0       0



 STREAM LISTING     PERIOD      1   STEP      107

 LAYER ROW COL. STREAM  RCH.  FLOW INTO     FLOW TO   FLOW OUT OF   OVRLND.     DIRECT     STREAM       STREAM     STREAM     STREAM   STREAMBED  STREAMBED
                SEG.NO.  NO.  STRM. RCH.    AQUIFER    STRM. RCH.    RUNOFF     PRECIP       ET          HEAD       DEPTH      WIDTH   CONDCTNC.   GRADIENT

   1    2    5     1     1    6.9120E+05 -7.9894E+04   7.7109E+05  0.000E+00  0.000E+00  0.000E+00  1.25330E+02  1.382E+00  5.000E+00  5.000E+03 -3.196E+01
   1    3    5     1     2    7.7109E+05 -5.5950E+04   8.2704E+05  0.000E+00  0.000E+00  0.000E+00  1.24302E+02  1.457E+00  5.000E+00  5.000E+03 -2.238E+01
   1    4    5     1     3    8.2704E+05 -5.2478E+04   8.7952E+05  0.000E+00  0.000E+00  0.000E+00  1.23257E+02  1.516E+00  5.000E+00  5.000E+03 -2.099E+01
   1    4    6     1     4    8.7952E+05 -4.2821E+04   9.2234E+05  0.000E+00  0.000E+00  0.000E+00  1.22204E+02  1.566E+00  5.000E+00  5.000E+03 -1.713E+01
   1    4    7     1     5    9.2234E+05 -2.0883E+04   9.4323E+05  0.000E+00  0.000E+00  0.000E+00  1.21410E+02  1.599E+00  5.000E+00  2.500E+03 -1.671E+01
   1    4    8     1     6    9.4323E+05 -3.4333E+04   9.7756E+05  0.000E+00  0.000E+00  0.000E+00  1.20748E+02  1.628E+00  5.000E+00  3.750E+03 -1.831E+01
   1    5    8     1     7    9.7756E+05 -3.5851E+04   1.0134E+06  0.000E+00  0.000E+00  0.000E+00  1.19818E+02  1.663E+00  5.000E+00  5.000E+03 -1.434E+01
   1    6    8     1     8    1.0134E+06 -2.4558E+04   1.0380E+06  0.000E+00  0.000E+00  0.000E+00  1.18745E+02  1.693E+00  5.000E+00  5.000E+03 -9.823E+00
   1   12    9     2     1    1.3288E+06 -2.5829E+04   1.3546E+06  0.000E+00  0.000E+00  0.000E+00  1.16614E+02  2.174E+00  5.000E+00  5.000E+03 -1.033E+01
   1   13    9     2     2    1.3546E+06 -4.0341E+04   1.3949E+06  0.000E+00  0.000E+00  0.000E+00  1.15825E+02  2.206E+00  5.000E+00  5.000E+03 -1.614E+01
   1   14   10     2     3    1.3949E+06 -2.1798E+04   1.4167E+06  0.000E+00  0.000E+00  0.000E+00  1.15215E+02  2.236E+00  5.000E+00  2.795E+03 -1.560E+01
   1   14   10     2     4    1.4167E+06 -2.3021E+04   1.4398E+06  0.000E+00  0.000E+00  0.000E+00  1.14778E+02  2.257E+00  5.000E+00  2.795E+03 -1.647E+01
   1   15   10     2     5    1.4398E+06 -3.8597E+04   1.4784E+06  0.000E+00  0.000E+00  0.000E+00  1.14167E+02  2.286E+00  5.000E+00  5.000E+03 -1.544E+01
   1   16   10     2     6    1.4784E+06 -2.5888E+04   1.5042E+06  0.000E+00  0.000E+00  0.000E+00  1.13377E+02  2.316E+00  5.000E+00  5.000E+03 -1.036E+01
   1   22   10     3     1    1.8176E+06 -2.6969E+04   1.8446E+06  0.000E+00  0.000E+00  0.000E+00  1.11466E+02  2.510E+00  5.000E+00  5.000E+03 -1.079E+01
   1   23   10     3     2    1.8446E+06 -3.9115E+04   1.8837E+06  0.000E+00  0.000E+00  0.000E+00  1.10666E+02  2.538E+00  5.000E+00  3.750E+03 -2.086E+01
   1   23   11     3     3    1.8837E+06 -2.3252E+04   1.9070E+06  0.000E+00  0.000E+00  0.000E+00  1.10100E+02  2.563E+00  5.000E+00  2.500E+03 -1.860E+01
   1   23   12     3     4    1.9070E+06 -4.6244E+04   1.9532E+06  0.000E+00  0.000E+00  0.000E+00  1.09419E+02  2.591E+00  5.000E+00  5.000E+03 -1.850E+01
   1   23   13     3     5    1.9532E+06 -4.9937E+04   2.0031E+06  0.000E+00  0.000E+00  0.000E+00  1.08511E+02  2.630E+00  5.000E+00  5.000E+03 -1.997E+01
   1   23   14     3     6    2.0031E+06 -5.3848E+04   2.0570E+06  0.000E+00  0.000E+00  0.000E+00  1.07607E+02  2.671E+00  5.000E+00  5.000E+03 -2.154E+01
   1   23   15     3     7    2.0570E+06 -6.1434E+04   2.1184E+06  0.000E+00  0.000E+00  0.000E+00  1.06706E+02  2.716E+00  5.000E+00  5.000E+03 -2.457E+01
   1   23   16     3     8    2.1184E+06 -8.9912E+04   2.2083E+06  0.000E+00  0.000E+00  0.000E+00  1.05819E+02  2.775E+00  5.000E+00  5.000E+03 -3.596E+01





     0  LAKE CELLS ARE DRY.

 PERIOD     1     TIME STEP   107     TIME STEP LENGTH  7.4350E+00
 PERIOD TIME  6.1803E+02     TOTAL SIMULATION TIME  6.1803E+02


                 HYDROLOGIC BUDGET SUMMARIES FOR SIMULATED LAKES
     (ALL FLUID FLUXES ARE VOLUMES ADDED TO THE LAKE DURING PRESENT TIME STEP)
     -------------------------------------------------------------------------
 LAKE    STAGE         VOLUME     VOL.CHANGE      PRECIP     EVAPORATION        RUNOFF
   1   117.0112     8.5069E+07    6.5040E+03    5.3904E+05    4.7863E+05    0.0000E+00
   2   111.9280     5.3299E+07    1.3384E+04    5.3904E+05    4.7863E+05    0.0000E+00

            GROUND WATER            SURFACE WATER        WATER
 LAKE    INFLOW     OUTFLOW      INFLOW     OUTFLOW       USE
   1  2.1082E+06  0.0000E+00  7.7173E+06  9.8795E+06  0.0000E+00
   2  2.2829E+06  0.0000E+00  1.1184E+07  1.3514E+07  0.0000E+00

      CONNECTED LAKE   TIME-STEP         STAGE-CHANGE          PERCENT
 LAKE    INFLUX      SURFACE AREA   TIME STEP  CUMULATIVE    DISCREPANCY
   1   0.0000E+00     6.2500E+06   1.0403E-03 -1.2989E+01       0.000
   2   0.0000E+00     6.2500E+06   2.1415E-03 -1.8072E+01       0.000
 --------------------------------------------------------------------------------



            CUMULATIVE HYDROLOGIC BUDGET SUMMARIES FOR SIMULATED LAKES
     (ALL FLUID FLUXES ARE SUMS OF VOLUMES ADDED TO THE LAKE SINCE INITIAL TIME)
     ---------------------------------------------------------------------------
 LAKE       PRECIP       EVAP       RUNOFF
   1     4.4807E+07  3.9785E+07  0.0000E+00
   2     4.4807E+07  3.9785E+07  0.0000E+00

            GROUND WATER            SURFACE WATER
 LAKE    INFLOW     OUTFLOW      INFLOW     OUTFLOW
   1  1.0827E+08  1.5644E+06  5.7847E+08  7.7138E+08
   2  1.2614E+08  1.4259E+06  8.4319E+08  1.0859E+09

         WATER    CONNECTED LAKE   CHANGE       PERCENT
 LAKE     USE         INFLUX       IN VOL.    DISCREPANCY
   1   0.0000E+00   0.0000E+00  -8.1179E+07      0.000
   2   0.0000E+00   0.0000E+00  -1.1295E+08      0.000
 --------------------------------------------------------------------------------

 
 SOLVING FOR HEAD 
     6 ITERATIONS FOR TIME STEP 108 IN STRESS PERIOD    1

 HEAD/DRAWDOWN PRINTOUT FLAG = 0     TOTAL BUDGET PRINTOUT FLAG = 0
 CELL-BY-CELL FLOW TERM FLAG = 1

 OUTPUT FLAGS FOR ALL LAYERS ARE THE SAME:
   HEAD    DRAWDOWN  HEAD  DRAWDOWN
 PRINTOUT  PRINTOUT  SAVE    SAVE
 ----------------------------------
     0         0       0       0



 STREAM LISTING     PERIOD      1   STEP      108

 LAYER ROW COL. STREAM  RCH.  FLOW INTO     FLOW TO   FLOW OUT OF   OVRLND.     DIRECT     STREAM       STREAM     STREAM     STREAM   STREAMBED  STREAMBED
                SEG.NO.  NO.  STRM. RCH.    AQUIFER    STRM. RCH.    RUNOFF     PRECIP       ET          HEAD       DEPTH      WIDTH   CONDCTNC.   GRADIENT

   1    2    5     1     1    6.9120E+05 -7.9902E+04   7.7110E+05  0.000E+00  0.000E+00  0.000E+00  1.25330E+02  1.382E+00  5.000E+00  5.000E+03 -3.196E+01
   1    3    5     1     2    7.7110E+05 -5.5974E+04   8.2708E+05  0.000E+00  0.000E+00  0.000E+00  1.24302E+02  1.458E+00  5.000E+00  5.000E+03 -2.239E+01
   1    4    5     1     3    8.2708E+05 -5.2529E+04   8.7961E+05  0.000E+00  0.000E+00  0.000E+00  1.23257E+02  1.516E+00  5.000E+00  5.000E+03 -2.101E+01
   1    4    6     1     4    8.7961E+05 -4.2867E+04   9.2247E+05  0.000E+00  0.000E+00  0.000E+00  1.22204E+02  1.566E+00  5.000E+00  5.000E+03 -1.715E+01
   1    4    7     1     5    9.2247E+05 -2.0903E+04   9.4338E+05  0.000E+00  0.000E+00  0.000E+00  1.21410E+02  1.599E+00  5.000E+00  2.500E+03 -1.672E+01
   1    4    8     1     6    9.4338E+05 -3.4365E+04   9.7774E+05  0.000E+00  0.000E+00  0.000E+00  1.20748E+02  1.628E+00  5.000E+00  3.750E+03 -1.833E+01
   1    5    8     1     7    9.7774E+05 -3.5908E+04   1.0136E+06  0.000E+00  0.000E+00  0.000E+00  1.19818E+02  1.663E+00  5.000E+00  5.000E+03 -1.436E+01
   1    6    8     1     8    1.0136E+06 -2.4605E+04   1.0383E+06  0.000E+00  0.000E+00  0.000E+00  1.18745E+02  1.693E+00  5.000E+00  5.000E+03 -9.842E+00
   1   12    9     2     1    1.3298E+06 -2.5905E+04   1.3557E+06  0.000E+00  0.000E+00  0.000E+00  1.16615E+02  2.175E+00  5.000E+00  5.000E+03 -1.036E+01
   1   13    9     2     2    1.3557E+06 -4.0476E+04   1.3962E+06  0.000E+00  0.000E+00  0.000E+00  1.15826E+02  2.207E+00  5.000E+00  5.000E+03 -1.619E+01
   1   14   10     2     3    1.3962E+06 -2.1869E+04   1.4180E+06  0.000E+00  0.000E+00  0.000E+00  1.15216E+02  2.237E+00  5.000E+00  2.795E+03 -1.565E+01
   1   14   10     2     4    1.4180E+06 -2.3092E+04   1.4411E+06  0.000E+00  0.000E+00  0.000E+00  1.14779E+02  2.258E+00  5.000E+00  2.795E+03 -1.652E+01
   1   15   10     2     5    1.4411E+06 -3.8719E+04   1.4799E+06  0.000E+00  0.000E+00  0.000E+00  1.14168E+02  2.287E+00  5.000E+00  5.000E+03 -1.549E+01
   1   16   10     2     6    1.4799E+06 -2.5964E+04   1.5058E+06  0.000E+00  0.000E+00  0.000E+00  1.13378E+02  2.318E+00  5.000E+00  5.000E+03 -1.039E+01
   1   22   10     3     1    1.8201E+06 -2.7018E+04   1.8471E+06  0.000E+00  0.000E+00  0.000E+00  1.11468E+02  2.513E+00  5.000E+00  5.000E+03 -1.081E+01
   1   23   10     3     2    1.8471E+06 -3.9170E+04   1.8863E+06  0.000E+00  0.000E+00  0.000E+00  1.10668E+02  2.540E+00  5.000E+00  3.750E+03 -2.089E+01
   1   23   11     3     3    1.8863E+06 -2.3280E+04   1.9096E+06  0.000E+00  0.000E+00  0.000E+00  1.10102E+02  2.565E+00  5.000E+00  2.500E+03 -1.862E+01
   1   23   12     3     4    1.9096E+06 -4.6293E+04   1.9559E+06  0.000E+00  0.000E+00  0.000E+00  1.09421E+02  2.593E+00  5.000E+00  5.000E+03 -1.852E+01
   1   23   13     3     5    1.9559E+06 -4.9983E+04   2.0058E+06  0.000E+00  0.000E+00  0.000E+00  1.08514E+02  2.632E+00  5.000E+00  5.000E+03 -1.999E+01
   1   23   14     3     6    2.0058E+06 -5.3884E+04   2.0597E+06  0.000E+00  0.000E+00  0.000E+00  1.07609E+02  2.673E+00  5.000E+00  5.000E+03 -2.155E+01
   1   23   15     3     7    2.0597E+06 -6.1456E+04   2.1212E+06  0.000E+00  0.000E+00  0.000E+00  1.06708E+02  2.718E+00  5.000E+00  5.000E+03 -2.458E+01
   1   23   16     3     8    2.1212E+06 -8.9918E+04   2.2111E+06  0.000E+00  0.000E+00  0.000E+00  1.05821E+02  2.777E+00  5.000E+00  5.000E+03 -3.597E+01





     0  LAKE CELLS ARE DRY.

 PERIOD     1     TIME STEP   108     TIME STEP LENGTH  7.4722E+00
 PERIOD TIME  6.2550E+02     TOTAL SIMULATION TIME  6.2550E+02


                 HYDROLOGIC BUDGET SUMMARIES FOR SIMULATED LAKES
     (ALL FLUID FLUXES ARE VOLUMES ADDED TO THE LAKE DURING PRESENT TIME STEP)
     -------------------------------------------------------------------------
 LAKE    STAGE         VOLUME     VOL.CHANGE      PRECIP     EVAPORATION        RUNOFF
   1   117.0122     8.5075E+07    6.1760E+03    5.4173E+05    4.8102E+05    0.0000E+00
   2   111.9301     5.3312E+07    1.2684E+04    5.4173E+05    4.8102E+05    0.0000E+00

            GROUND WATER            SURFACE WATER        WATER
 LAKE    INFLOW     OUTFLOW      INFLOW     OUTFLOW       USE
   1  2.1239E+06  0.0000E+00  7.7580E+06  9.9365E+06  0.0000E+00
   2  2.3003E+06  0.0000E+00  1.1252E+07  1.3600E+07  0.0000E+00

      CONNECTED LAKE   TIME-STEP         STAGE-CHANGE          PERCENT
 LAKE    INFLUX      SURFACE AREA   TIME STEP  CUMULATIVE    DISCREPANCY
   1   0.0000E+00     6.2500E+06   9.8832E-04 -1.2988E+01       0.000
   2   0.0000E+00     6.2500E+06   2.0295E-03 -1.8070E+01       0.000
 --------------------------------------------------------------------------------



            CUMULATIVE HYDROLOGIC BUDGET SUMMARIES FOR SIMULATED LAKES
     (ALL FLUID FLUXES ARE SUMS OF VOLUMES ADDED TO THE LAKE SINCE INITIAL TIME)
     ---------------------------------------------------------------------------
 LAKE       PRECIP       EVAP       RUNOFF
   1     4.5349E+07  4.0266E+07  0.0000E+00
   2     4.5349E+07  4.0266E+07  0.0000E+00

            GROUND WATER            SURFACE WATER
 LAKE    INFLOW     OUTFLOW      INFLOW     OUTFLOW
   1  1.1039E+08  1.5644E+06  5.8623E+08  7.8132E+08
   2  1.2844E+08  1.4259E+06  8.5444E+08  1.0995E+09

         WATER    CONNECTED LAKE   CHANGE       PERCENT
 LAKE     USE         INFLUX       IN VOL.    DISCREPANCY
   1   0.0000E+00   0.0000E+00  -8.1173E+07      0.000
   2   0.0000E+00   0.0000E+00  -1.1294E+08      0.000
 --------------------------------------------------------------------------------

 
 SOLVING FOR HEAD 
     6 ITERATIONS FOR TIME STEP 109 IN STRESS PERIOD    1

 HEAD/DRAWDOWN PRINTOUT FLAG = 0     TOTAL BUDGET PRINTOUT FLAG = 0
 CELL-BY-CELL FLOW TERM FLAG = 1

 OUTPUT FLAGS FOR ALL LAYERS ARE THE SAME:
   HEAD    DRAWDOWN  HEAD  DRAWDOWN
 PRINTOUT  PRINTOUT  SAVE    SAVE
 ----------------------------------
     0         0       0       0



 STREAM LISTING     PERIOD      1   STEP      109

 LAYER ROW COL. STREAM  RCH.  FLOW INTO     FLOW TO   FLOW OUT OF   OVRLND.     DIRECT     STREAM       STREAM     STREAM     STREAM   STREAMBED  STREAMBED
                SEG.NO.  NO.  STRM. RCH.    AQUIFER    STRM. RCH.    RUNOFF     PRECIP       ET          HEAD       DEPTH      WIDTH   CONDCTNC.   GRADIENT

   1    2    5     1     1    6.9120E+05 -7.9910E+04   7.7111E+05  0.000E+00  0.000E+00  0.000E+00  1.25330E+02  1.382E+00  5.000E+00  5.000E+03 -3.196E+01
   1    3    5     1     2    7.7111E+05 -5.5997E+04   8.2711E+05  0.000E+00  0.000E+00  0.000E+00  1.24302E+02  1.458E+00  5.000E+00  5.000E+03 -2.240E+01
   1    4    5     1     3    8.2711E+05 -5.2578E+04   8.7968E+05  0.000E+00  0.000E+00  0.000E+00  1.23258E+02  1.516E+00  5.000E+00  5.000E+03 -2.103E+01
   1    4    6     1     4    8.7968E+05 -4.2911E+04   9.2260E+05  0.000E+00  0.000E+00  0.000E+00  1.22204E+02  1.566E+00  5.000E+00  5.000E+03 -1.716E+01
   1    4    7     1     5    9.2260E+05 -2.0923E+04   9.4352E+05  0.000E+00  0.000E+00  0.000E+00  1.21410E+02  1.600E+00  5.000E+00  2.500E+03 -1.674E+01
   1    4    8     1     6    9.4352E+05 -3.4394E+04   9.7791E+05  0.000E+00  0.000E+00  0.000E+00  1.20749E+02  1.628E+00  5.000E+00  3.750E+03 -1.834E+01
   1    5    8     1     7    9.7791E+05 -3.5962E+04   1.0139E+06  0.000E+00  0.000E+00  0.000E+00  1.19819E+02  1.663E+00  5.000E+00  5.000E+03 -1.438E+01
   1    6    8     1     8    1.0139E+06 -2.4649E+04   1.0385E+06  0.000E+00  0.000E+00  0.000E+00  1.18745E+02  1.694E+00  5.000E+00  5.000E+03 -9.860E+00
   1   12    9     2     1    1.3308E+06 -2.5978E+04   1.3567E+06  0.000E+00  0.000E+00  0.000E+00  1.16616E+02  2.176E+00  5.000E+00  5.000E+03 -1.039E+01
   1   13    9     2     2    1.3567E+06 -4.0605E+04   1.3973E+06  0.000E+00  0.000E+00  0.000E+00  1.15827E+02  2.208E+00  5.000E+00  5.000E+03 -1.624E+01
   1   14   10     2     3    1.3973E+06 -2.1937E+04   1.4193E+06  0.000E+00  0.000E+00  0.000E+00  1.15217E+02  2.238E+00  5.000E+00  2.795E+03 -1.570E+01
   1   14   10     2     4    1.4193E+06 -2.3159E+04   1.4424E+06  0.000E+00  0.000E+00  0.000E+00  1.14780E+02  2.259E+00  5.000E+00  2.795E+03 -1.657E+01
   1   15   10     2     5    1.4424E+06 -3.8836E+04   1.4813E+06  0.000E+00  0.000E+00  0.000E+00  1.14170E+02  2.289E+00  5.000E+00  5.000E+03 -1.553E+01
   1   16   10     2     6    1.4813E+06 -2.6037E+04   1.5073E+06  0.000E+00  0.000E+00  0.000E+00  1.13379E+02  2.319E+00  5.000E+00  5.000E+03 -1.041E+01
   1   22   10     3     1    1.8224E+06 -2.7064E+04   1.8495E+06  0.000E+00  0.000E+00  0.000E+00  1.11470E+02  2.515E+00  5.000E+00  5.000E+03 -1.083E+01
   1   23   10     3     2    1.8495E+06 -3.9223E+04   1.8887E+06  0.000E+00  0.000E+00  0.000E+00  1.10670E+02  2.542E+00  5.000E+00  3.750E+03 -2.092E+01
   1   23   11     3     3    1.8887E+06 -2.3307E+04   1.9120E+06  0.000E+00  0.000E+00  0.000E+00  1.10104E+02  2.567E+00  5.000E+00  2.500E+03 -1.865E+01
   1   23   12     3     4    1.9120E+06 -4.6339E+04   1.9584E+06  0.000E+00  0.000E+00  0.000E+00  1.09423E+02  2.595E+00  5.000E+00  5.000E+03 -1.854E+01
   1   23   13     3     5    1.9584E+06 -5.0027E+04   2.0084E+06  0.000E+00  0.000E+00  0.000E+00  1.08516E+02  2.634E+00  5.000E+00  5.000E+03 -2.001E+01
   1   23   14     3     6    2.0084E+06 -5.3918E+04   2.0623E+06  0.000E+00  0.000E+00  0.000E+00  1.07611E+02  2.675E+00  5.000E+00  5.000E+03 -2.157E+01
   1   23   15     3     7    2.0623E+06 -6.1478E+04   2.1238E+06  0.000E+00  0.000E+00  0.000E+00  1.06710E+02  2.720E+00  5.000E+00  5.000E+03 -2.459E+01
   1   23   16     3     8    2.1238E+06 -8.9924E+04   2.2137E+06  0.000E+00  0.000E+00  0.000E+00  1.05823E+02  2.779E+00  5.000E+00  5.000E+03 -3.597E+01





     0  LAKE CELLS ARE DRY.

 PERIOD     1     TIME STEP   109     TIME STEP LENGTH  7.5096E+00
 PERIOD TIME  6.3301E+02     TOTAL SIMULATION TIME  6.3301E+02


                 HYDROLOGIC BUDGET SUMMARIES FOR SIMULATED LAKES
     (ALL FLUID FLUXES ARE VOLUMES ADDED TO THE LAKE DURING PRESENT TIME STEP)
     -------------------------------------------------------------------------
 LAKE    STAGE         VOLUME     VOL.CHANGE      PRECIP     EVAPORATION        RUNOFF
   1   117.0131     8.5081E+07    5.8720E+03    5.4444E+05    4.8343E+05    0.0000E+00
   2   111.9320     5.3324E+07    1.2048E+04    5.4444E+05    4.8343E+05    0.0000E+00

            GROUND WATER            SURFACE WATER        WATER
 LAKE    INFLOW     OUTFLOW      INFLOW     OUTFLOW       USE
   1  2.1394E+06  0.0000E+00  7.7989E+06  9.9934E+06  0.0000E+00
   2  2.3175E+06  0.0000E+00  1.1319E+07  1.3686E+07  0.0000E+00

      CONNECTED LAKE   TIME-STEP         STAGE-CHANGE          PERCENT
 LAKE    INFLUX      SURFACE AREA   TIME STEP  CUMULATIVE    DISCREPANCY
   1   0.0000E+00     6.2500E+06   9.4010E-04 -1.2987E+01       0.000
   2   0.0000E+00     6.2500E+06   1.9278E-03 -1.8068E+01       0.000
 --------------------------------------------------------------------------------



            CUMULATIVE HYDROLOGIC BUDGET SUMMARIES FOR SIMULATED LAKES
     (ALL FLUID FLUXES ARE SUMS OF VOLUMES ADDED TO THE LAKE SINCE INITIAL TIME)
     ---------------------------------------------------------------------------
 LAKE       PRECIP       EVAP       RUNOFF
   1     4.5893E+07  4.0750E+07  0.0000E+00
   2     4.5893E+07  4.0750E+07  0.0000E+00

            GROUND WATER            SURFACE WATER
 LAKE    INFLOW     OUTFLOW      INFLOW     OUTFLOW
   1  1.1253E+08  1.5644E+06  5.9403E+08  7.9131E+08
   2  1.3076E+08  1.4259E+06  8.6576E+08  1.1132E+09

         WATER    CONNECTED LAKE   CHANGE       PERCENT
 LAKE     USE         INFLUX       IN VOL.    DISCREPANCY
   1   0.0000E+00   0.0000E+00  -8.1167E+07      0.000
   2   0.0000E+00   0.0000E+00  -1.1292E+08      0.000
 --------------------------------------------------------------------------------

 
 SOLVING FOR HEAD 
     6 ITERATIONS FOR TIME STEP 110 IN STRESS PERIOD    1

 HEAD/DRAWDOWN PRINTOUT FLAG = 1     TOTAL BUDGET PRINTOUT FLAG = 1
 CELL-BY-CELL FLOW TERM FLAG = 1

 OUTPUT FLAGS FOR EACH LAYER:
          HEAD    DRAWDOWN  HEAD  DRAWDOWN
 LAYER  PRINTOUT  PRINTOUT  SAVE    SAVE
 -----------------------------------------
    1       0         0       0       0
    2       0         0       0       0
    3       0         0       0       0
    4       0         0       0       0
    5       1         0       0       0



 STREAM LISTING     PERIOD      1   STEP      110

 LAYER ROW COL. STREAM  RCH.  FLOW INTO     FLOW TO   FLOW OUT OF   OVRLND.     DIRECT     STREAM       STREAM     STREAM     STREAM   STREAMBED  STREAMBED
                SEG.NO.  NO.  STRM. RCH.    AQUIFER    STRM. RCH.    RUNOFF     PRECIP       ET          HEAD       DEPTH      WIDTH   CONDCTNC.   GRADIENT

   1    2    5     1     1    6.9120E+05 -7.9917E+04   7.7112E+05  0.000E+00  0.000E+00  0.000E+00  1.25330E+02  1.382E+00  5.000E+00  5.000E+03 -3.197E+01
   1    3    5     1     2    7.7112E+05 -5.6018E+04   8.2714E+05  0.000E+00  0.000E+00  0.000E+00  1.24302E+02  1.458E+00  5.000E+00  5.000E+03 -2.241E+01
   1    4    5     1     3    8.2714E+05 -5.2624E+04   8.7976E+05  0.000E+00  0.000E+00  0.000E+00  1.23258E+02  1.516E+00  5.000E+00  5.000E+03 -2.105E+01
   1    4    6     1     4    8.7976E+05 -4.2953E+04   9.2271E+05  0.000E+00  0.000E+00  0.000E+00  1.22205E+02  1.567E+00  5.000E+00  5.000E+03 -1.718E+01
   1    4    7     1     5    9.2271E+05 -2.0941E+04   9.4365E+05  0.000E+00  0.000E+00  0.000E+00  1.21410E+02  1.600E+00  5.000E+00  2.500E+03 -1.675E+01
   1    4    8     1     6    9.4365E+05 -3.4422E+04   9.7808E+05  0.000E+00  0.000E+00  0.000E+00  1.20749E+02  1.628E+00  5.000E+00  3.750E+03 -1.836E+01
   1    5    8     1     7    9.7808E+05 -3.6013E+04   1.0141E+06  0.000E+00  0.000E+00  0.000E+00  1.19819E+02  1.664E+00  5.000E+00  5.000E+03 -1.441E+01
   1    6    8     1     8    1.0141E+06 -2.4691E+04   1.0388E+06  0.000E+00  0.000E+00  0.000E+00  1.18745E+02  1.694E+00  5.000E+00  5.000E+03 -9.876E+00
   1   12    9     2     1    1.3317E+06 -2.6047E+04   1.3577E+06  0.000E+00  0.000E+00  0.000E+00  1.16616E+02  2.177E+00  5.000E+00  5.000E+03 -1.042E+01
   1   13    9     2     2    1.3577E+06 -4.0728E+04   1.3985E+06  0.000E+00  0.000E+00  0.000E+00  1.15828E+02  2.209E+00  5.000E+00  5.000E+03 -1.629E+01
   1   14   10     2     3    1.3985E+06 -2.2002E+04   1.4205E+06  0.000E+00  0.000E+00  0.000E+00  1.15218E+02  2.239E+00  5.000E+00  2.795E+03 -1.574E+01
   1   14   10     2     4    1.4205E+06 -2.3224E+04   1.4437E+06  0.000E+00  0.000E+00  0.000E+00  1.14781E+02  2.261E+00  5.000E+00  2.795E+03 -1.662E+01
   1   15   10     2     5    1.4437E+06 -3.8947E+04   1.4826E+06  0.000E+00  0.000E+00  0.000E+00  1.14171E+02  2.290E+00  5.000E+00  5.000E+03 -1.558E+01
   1   16   10     2     6    1.4826E+06 -2.6107E+04   1.5087E+06  0.000E+00  0.000E+00  0.000E+00  1.13381E+02  2.320E+00  5.000E+00  5.000E+03 -1.044E+01
   1   22   10     3     1    1.8247E+06 -2.7108E+04   1.8518E+06  0.000E+00  0.000E+00  0.000E+00  1.11472E+02  2.516E+00  5.000E+00  5.000E+03 -1.084E+01
   1   23   10     3     2    1.8518E+06 -3.9273E+04   1.8911E+06  0.000E+00  0.000E+00  0.000E+00  1.10672E+02  2.544E+00  5.000E+00  3.750E+03 -2.095E+01
   1   23   11     3     3    1.8911E+06 -2.3333E+04   1.9144E+06  0.000E+00  0.000E+00  0.000E+00  1.10106E+02  2.569E+00  5.000E+00  2.500E+03 -1.867E+01
   1   23   12     3     4    1.9144E+06 -4.6384E+04   1.9608E+06  0.000E+00  0.000E+00  0.000E+00  1.09425E+02  2.597E+00  5.000E+00  5.000E+03 -1.855E+01
   1   23   13     3     5    1.9608E+06 -5.0069E+04   2.0108E+06  0.000E+00  0.000E+00  0.000E+00  1.08517E+02  2.636E+00  5.000E+00  5.000E+03 -2.003E+01
   1   23   14     3     6    2.0108E+06 -5.3950E+04   2.0648E+06  0.000E+00  0.000E+00  0.000E+00  1.07613E+02  2.677E+00  5.000E+00  5.000E+03 -2.158E+01
   1   23   15     3     7    2.0648E+06 -6.1498E+04   2.1263E+06  0.000E+00  0.000E+00  0.000E+00  1.06712E+02  2.722E+00  5.000E+00  5.000E+03 -2.460E+01
   1   23   16     3     8    2.1263E+06 -8.9930E+04   2.2162E+06  0.000E+00  0.000E+00  0.000E+00  1.05825E+02  2.781E+00  5.000E+00  5.000E+03 -3.597E+01





     0  LAKE CELLS ARE DRY.

 PERIOD     1     TIME STEP   110     TIME STEP LENGTH  7.5471E+00
 PERIOD TIME  6.4055E+02     TOTAL SIMULATION TIME  6.4055E+02


                 HYDROLOGIC BUDGET SUMMARIES FOR SIMULATED LAKES
     (ALL FLUID FLUXES ARE VOLUMES ADDED TO THE LAKE DURING PRESENT TIME STEP)
     -------------------------------------------------------------------------
 LAKE    STAGE         VOLUME     VOL.CHANGE      PRECIP     EVAPORATION        RUNOFF
   1   117.0140     8.5087E+07    5.5680E+03    5.4717E+05    4.8585E+05    0.0000E+00
   2   111.9338     5.3335E+07    1.1428E+04    5.4717E+05    4.8585E+05    0.0000E+00

            GROUND WATER            SURFACE WATER        WATER
 LAKE    INFLOW     OUTFLOW      INFLOW     OUTFLOW       USE
   1  2.1548E+06  0.0000E+00  7.8398E+06  1.0050E+07  0.0000E+00
   2  2.3346E+06  0.0000E+00  1.1387E+07  1.3771E+07  0.0000E+00

      CONNECTED LAKE   TIME-STEP         STAGE-CHANGE          PERCENT
 LAKE    INFLUX      SURFACE AREA   TIME STEP  CUMULATIVE    DISCREPANCY
   1   0.0000E+00     6.2500E+06   8.8986E-04 -1.2986E+01       0.000
   2   0.0000E+00     6.2500E+06   1.8286E-03 -1.8066E+01       0.000
 --------------------------------------------------------------------------------



            CUMULATIVE HYDROLOGIC BUDGET SUMMARIES FOR SIMULATED LAKES
     (ALL FLUID FLUXES ARE SUMS OF VOLUMES ADDED TO THE LAKE SINCE INITIAL TIME)
     ---------------------------------------------------------------------------
 LAKE       PRECIP       EVAP       RUNOFF
   1     4.6440E+07  4.1236E+07  0.0000E+00
   2     4.6440E+07  4.1236E+07  0.0000E+00

            GROUND WATER            SURFACE WATER
 LAKE    INFLOW     OUTFLOW      INFLOW     OUTFLOW
   1  1.1469E+08  1.5644E+06  6.0187E+08  8.0136E+08
   2  1.3309E+08  1.4259E+06  8.7715E+08  1.1269E+09

         WATER    CONNECTED LAKE   CHANGE       PERCENT
 LAKE     USE         INFLUX       IN VOL.    DISCREPANCY
   1   0.0000E+00   0.0000E+00  -8.1162E+07      0.000
   2   0.0000E+00   0.0000E+00  -1.1291E+08      0.000
 --------------------------------------------------------------------------------

1
              HEAD IN LAYER   5 AT END OF TIME STEP 110 IN STRESS PERIOD    1
  ---------------------------------------------------------------------------

          1      2      3      4      5      6      7      8      9     10
 .........................................................................
   1   160.0  158.9  157.3  155.8  154.2  152.7  151.5  150.8  150.0  149.2
   2   160.0  158.2  155.3  151.1  141.3  146.7  147.2  147.1  146.9  146.6
   3   160.0  157.5  153.5  147.5  135.5  139.8  140.7  141.2  142.0  142.6
   4   160.0  157.3  152.8  146.5  133.8  130.8  129.8  130.0  135.2  138.0
   5   160.0  157.2  153.0  148.0  141.5  135.8  131.0  127.1  131.3  134.2
   6   160.0  157.3  153.3  148.8  143.2  135.7  128.1  123.7  125.9  127.9
   7   160.0  157.3  153.4  149.0  143.1  133.1  117.8  117.3  117.3  117.4
   8   160.0  157.3  153.4  149.1  143.1  132.4  117.5  117.0  117.0  117.0
   9   160.0  157.4  153.5  149.2  143.2  132.3  117.5  117.0  117.0  117.0
  10   160.0  157.4  153.5  149.3  143.5  132.8  117.5  117.0  117.0  117.0
  11   160.0  157.4  153.6  149.5  143.9  134.0  117.9  117.3  117.2  117.3
  12   160.0  157.4  153.7  149.8  145.0  137.9  130.2  126.0  121.8  124.7
  13   160.0  157.5  153.9  150.2  146.0  140.5  134.8  130.2  124.0  127.2
  14   160.0  157.5  153.9  150.3  146.3  141.3  136.5  132.6  128.1  123.1
  15   160.0  157.5  153.8  150.1  145.8  140.3  135.1  131.3  127.0  122.0
  16   160.0  157.4  153.7  149.7  144.5  136.7  128.7  124.8  121.8  118.6
  17   160.0  157.4  153.6  149.3  143.3  131.9  113.1  112.4  112.2  112.2
  18   160.0  157.4  153.6  149.2  142.9  130.4  112.5  112.0  111.9  112.0
  19   160.0  157.4  153.6  149.2  142.8  130.1  112.5  112.0  111.9  111.9
  20   160.0  157.4  153.7  149.4  143.1  130.7  112.5  112.0  111.9  112.0
  21   160.0  157.5  153.8  149.7  143.8  132.5  113.1  112.4  112.2  112.1
  22   160.0  157.6  154.1  150.3  145.5  138.0  129.8  125.7  121.8  116.9
  23   160.0  157.7  154.6  151.4  147.7  142.9  138.3  134.5  129.4  121.2
  24   160.0  157.9  155.1  152.4  149.5  146.3  143.5  141.4  139.2  137.0
  25   160.0  158.1  155.7  153.4  151.2  148.8  146.9  145.6  144.3  143.1
  26   160.0  158.5  156.5  154.7  152.9  151.0  149.7  148.7  147.8  146.9
  27   160.0  158.9  157.3  155.8  154.2  152.7  151.5  150.8  150.0  149.2
1
              HEAD IN LAYER   5 AT END OF TIME STEP 110 IN STRESS PERIOD    1
  ---------------------------------------------------------------------------

         11     12     13     14     15     16     17
 ....................................................
   1   148.5  147.3  145.8  144.2  142.7  141.1  140.0
   2   146.2  145.5  144.3  143.0  141.7  140.5  140.0
   3   142.9  143.1  142.6  141.7  140.8  140.1  140.0
   4   139.5  140.8  141.1  140.8  140.2  139.8  140.0
   5   136.2  138.3  139.6  139.9  139.8  139.7  140.0
   6   130.1  134.8  138.0  139.1  139.4  139.5  140.0
   7   117.8  130.9  136.7  138.6  139.2  139.5  140.0
   8   117.4  129.6  136.2  138.4  139.1  139.4  140.0
   9   117.4  129.1  135.9  138.2  139.0  139.4  140.0
  10   117.4  129.3  135.9  138.2  138.9  139.4  140.0
  11   117.7  130.1  136.1  138.2  138.9  139.4  140.0
  12   127.5  132.9  136.7  138.3  139.0  139.4  140.0
  13   130.4  134.4  137.3  138.5  139.0  139.4  140.0
  14   128.7  134.0  137.1  138.4  138.9  139.4  140.0
  15   127.2  132.9  136.5  138.1  138.8  139.3  140.0
  16   123.1  130.2  135.3  137.5  138.4  139.2  140.0
  17   112.7  126.6  134.0  136.7  138.0  139.0  140.0
  18   112.4  125.3  133.2  136.2  137.6  138.8  140.0
  19   112.3  124.5  132.4  135.5  137.0  138.5  140.0
  20   112.3  124.0  131.6  134.5  136.1  138.0  140.0
  21   112.5  123.7  130.3  133.0  134.7  137.1  140.0
  22   119.4  123.8  127.6  129.6  131.3  134.8  140.0
  23   119.5  118.7  118.6  118.4  119.0  123.9  140.0
  24   135.4  133.9  132.7  132.1  132.4  135.1  140.0
  25   142.0  140.6  139.2  138.2  137.8  138.5  140.0
  26   146.0  144.8  143.3  142.0  140.8  140.1  140.0
  27   148.5  147.3  145.8  144.2  142.7  141.1  140.0
1
  VOLUMETRIC BUDGET FOR ENTIRE MODEL AT END OF TIME STEP110 IN STRESS PERIOD   1
  ------------------------------------------------------------------------------

     CUMULATIVE VOLUMES      L**3       RATES FOR THIS TIME STEP      L**3/T
     ------------------                 ------------------------

           IN:                                      IN:
           ---                                      ---
             STORAGE =     2934567.7500               STORAGE =           0.0000
       CONSTANT HEAD =   839749376.0000         CONSTANT HEAD =      565689.5000
                  ET =           0.0000                    ET =           0.0000
            RECHARGE =  1764726272.0000              RECHARGE =     2755000.0000
     SPECIFIED FLOWS =           0.0000       SPECIFIED FLOWS =           0.0000
      STREAM LEAKAGE =     3694574.2500        STREAM LEAKAGE =           0.0000
       LAKE  SEEPAGE =     2990331.7500         LAKE  SEEPAGE =           0.0000

            TOTAL IN =  2614095104.0000              TOTAL IN =     3320689.5000

          OUT:                                     OUT:
          ----                                     ----
             STORAGE =  1254291328.0000               STORAGE =      131846.8438
       CONSTANT HEAD =      617843.0625         CONSTANT HEAD =        2440.4236
                  ET =   662675200.0000                    ET =     1675354.7500
            RECHARGE =           0.0000              RECHARGE =           0.0000
     SPECIFIED FLOWS =           0.0000       SPECIFIED FLOWS =           0.0000
      STREAM LEAKAGE =   448727584.0000        STREAM LEAKAGE =      916178.1875
       LAKE  SEEPAGE =   247778944.0000         LAKE  SEEPAGE =      594842.1875

           TOTAL OUT =  2614091008.0000             TOTAL OUT =     3320662.5000

            IN - OUT =        4096.0000              IN - OUT =          27.0000

 PERCENT DISCREPANCY =           0.00     PERCENT DISCREPANCY =           0.00






          TIME SUMMARY AT END OF TIME STEP 110 IN STRESS PERIOD    1
                    SECONDS     MINUTES      HOURS       DAYS        YEARS
                    -----------------------------------------------------------
   TIME STEP LENGTH 6.52070E+05  10868.      181.13      7.5471     2.06629E-02
 STRESS PERIOD TIME 5.53439E+07 9.22398E+05  15373.      640.55      1.7537    
         TOTAL TIME 5.53439E+07 9.22398E+05  15373.      640.55      1.7537    
1
 
 SOLVING FOR HEAD 
     6 ITERATIONS FOR TIME STEP 111 IN STRESS PERIOD    1

 HEAD/DRAWDOWN PRINTOUT FLAG = 0     TOTAL BUDGET PRINTOUT FLAG = 0
 CELL-BY-CELL FLOW TERM FLAG = 1

 OUTPUT FLAGS FOR ALL LAYERS ARE THE SAME:
   HEAD    DRAWDOWN  HEAD  DRAWDOWN
 PRINTOUT  PRINTOUT  SAVE    SAVE
 ----------------------------------
     0         0       0       0



 STREAM LISTING     PERIOD      1   STEP      111

 LAYER ROW COL. STREAM  RCH.  FLOW INTO     FLOW TO   FLOW OUT OF   OVRLND.     DIRECT     STREAM       STREAM     STREAM     STREAM   STREAMBED  STREAMBED
                SEG.NO.  NO.  STRM. RCH.    AQUIFER    STRM. RCH.    RUNOFF     PRECIP       ET          HEAD       DEPTH      WIDTH   CONDCTNC.   GRADIENT

   1    2    5     1     1    6.9120E+05 -7.9923E+04   7.7112E+05  0.000E+00  0.000E+00  0.000E+00  1.25330E+02  1.382E+00  5.000E+00  5.000E+03 -3.197E+01
   1    3    5     1     2    7.7112E+05 -5.6039E+04   8.2716E+05  0.000E+00  0.000E+00  0.000E+00  1.24302E+02  1.458E+00  5.000E+00  5.000E+03 -2.242E+01
   1    4    5     1     3    8.2716E+05 -5.2667E+04   8.7983E+05  0.000E+00  0.000E+00  0.000E+00  1.23258E+02  1.516E+00  5.000E+00  5.000E+03 -2.107E+01
   1    4    6     1     4    8.7983E+05 -4.2992E+04   9.2282E+05  0.000E+00  0.000E+00  0.000E+00  1.22205E+02  1.567E+00  5.000E+00  5.000E+03 -1.720E+01
   1    4    7     1     5    9.2282E+05 -2.0959E+04   9.4378E+05  0.000E+00  0.000E+00  0.000E+00  1.21410E+02  1.600E+00  5.000E+00  2.500E+03 -1.677E+01
   1    4    8     1     6    9.4378E+05 -3.4449E+04   9.7823E+05  0.000E+00  0.000E+00  0.000E+00  1.20749E+02  1.628E+00  5.000E+00  3.750E+03 -1.837E+01
   1    5    8     1     7    9.7823E+05 -3.6061E+04   1.0143E+06  0.000E+00  0.000E+00  0.000E+00  1.19819E+02  1.664E+00  5.000E+00  5.000E+03 -1.442E+01
   1    6    8     1     8    1.0143E+06 -2.4731E+04   1.0390E+06  0.000E+00  0.000E+00  0.000E+00  1.18746E+02  1.694E+00  5.000E+00  5.000E+03 -9.892E+00
   1   12    9     2     1    1.3325E+06 -2.6113E+04   1.3587E+06  0.000E+00  0.000E+00  0.000E+00  1.16617E+02  2.178E+00  5.000E+00  5.000E+03 -1.045E+01
   1   13    9     2     2    1.3587E+06 -4.0846E+04   1.3995E+06  0.000E+00  0.000E+00  0.000E+00  1.15829E+02  2.210E+00  5.000E+00  5.000E+03 -1.634E+01
   1   14   10     2     3    1.3995E+06 -2.2064E+04   1.4216E+06  0.000E+00  0.000E+00  0.000E+00  1.15219E+02  2.240E+00  5.000E+00  2.795E+03 -1.579E+01
   1   14   10     2     4    1.4216E+06 -2.3286E+04   1.4449E+06  0.000E+00  0.000E+00  0.000E+00  1.14782E+02  2.262E+00  5.000E+00  2.795E+03 -1.666E+01
   1   15   10     2     5    1.4449E+06 -3.9054E+04   1.4839E+06  0.000E+00  0.000E+00  0.000E+00  1.14172E+02  2.291E+00  5.000E+00  5.000E+03 -1.562E+01
   1   16   10     2     6    1.4839E+06 -2.6174E+04   1.5101E+06  0.000E+00  0.000E+00  0.000E+00  1.13382E+02  2.321E+00  5.000E+00  5.000E+03 -1.047E+01
   1   22   10     3     1    1.8268E+06 -2.7149E+04   1.8539E+06  0.000E+00  0.000E+00  0.000E+00  1.11474E+02  2.518E+00  5.000E+00  5.000E+03 -1.086E+01
   1   23   10     3     2    1.8539E+06 -3.9320E+04   1.8933E+06  0.000E+00  0.000E+00  0.000E+00  1.10673E+02  2.545E+00  5.000E+00  3.750E+03 -2.097E+01
   1   23   11     3     3    1.8933E+06 -2.3357E+04   1.9166E+06  0.000E+00  0.000E+00  0.000E+00  1.10108E+02  2.571E+00  5.000E+00  2.500E+03 -1.869E+01
   1   23   12     3     4    1.9166E+06 -4.6426E+04   1.9631E+06  0.000E+00  0.000E+00  0.000E+00  1.09427E+02  2.599E+00  5.000E+00  5.000E+03 -1.857E+01
   1   23   13     3     5    1.9631E+06 -5.0108E+04   2.0132E+06  0.000E+00  0.000E+00  0.000E+00  1.08519E+02  2.638E+00  5.000E+00  5.000E+03 -2.004E+01
   1   23   14     3     6    2.0132E+06 -5.3981E+04   2.0671E+06  0.000E+00  0.000E+00  0.000E+00  1.07615E+02  2.679E+00  5.000E+00  5.000E+03 -2.159E+01
   1   23   15     3     7    2.0671E+06 -6.1518E+04   2.1287E+06  0.000E+00  0.000E+00  0.000E+00  1.06714E+02  2.724E+00  5.000E+00  5.000E+03 -2.461E+01
   1   23   16     3     8    2.1287E+06 -8.9935E+04   2.2186E+06  0.000E+00  0.000E+00  0.000E+00  1.05827E+02  2.783E+00  5.000E+00  5.000E+03 -3.597E+01





     0  LAKE CELLS ARE DRY.

 PERIOD     1     TIME STEP   111     TIME STEP LENGTH  7.5848E+00
 PERIOD TIME  6.4814E+02     TOTAL SIMULATION TIME  6.4814E+02


                 HYDROLOGIC BUDGET SUMMARIES FOR SIMULATED LAKES
     (ALL FLUID FLUXES ARE VOLUMES ADDED TO THE LAKE DURING PRESENT TIME STEP)
     -------------------------------------------------------------------------
 LAKE    STAGE         VOLUME     VOL.CHANGE      PRECIP     EVAPORATION        RUNOFF
   1   117.0149     8.5092E+07    5.2720E+03    5.4990E+05    4.8827E+05    0.0000E+00
   2   111.9356     5.3346E+07    1.0864E+04    5.4990E+05    4.8827E+05    0.0000E+00

            GROUND WATER            SURFACE WATER        WATER
 LAKE    INFLOW     OUTFLOW      INFLOW     OUTFLOW       USE
   1  2.1700E+06  0.0000E+00  7.8808E+06  1.0107E+07  0.0000E+00
   2  2.3515E+06  0.0000E+00  1.1454E+07  1.3856E+07  0.0000E+00

      CONNECTED LAKE   TIME-STEP         STAGE-CHANGE          PERCENT
 LAKE    INFLUX      SURFACE AREA   TIME STEP  CUMULATIVE    DISCREPANCY
   1   0.0000E+00     6.2500E+06   8.4383E-04 -1.2985E+01       0.000
   2   0.0000E+00     6.2500E+06   1.7382E-03 -1.8064E+01       0.000
 --------------------------------------------------------------------------------



            CUMULATIVE HYDROLOGIC BUDGET SUMMARIES FOR SIMULATED LAKES
     (ALL FLUID FLUXES ARE SUMS OF VOLUMES ADDED TO THE LAKE SINCE INITIAL TIME)
     ---------------------------------------------------------------------------
 LAKE       PRECIP       EVAP       RUNOFF
   1     4.6990E+07  4.1724E+07  0.0000E+00
   2     4.6990E+07  4.1724E+07  0.0000E+00

            GROUND WATER            SURFACE WATER
 LAKE    INFLOW     OUTFLOW      INFLOW     OUTFLOW
   1  1.1686E+08  1.5644E+06  6.0975E+08  8.1147E+08
   2  1.3544E+08  1.4259E+06  8.8860E+08  1.1408E+09

         WATER    CONNECTED LAKE   CHANGE       PERCENT
 LAKE     USE         INFLUX       IN VOL.    DISCREPANCY
   1   0.0000E+00   0.0000E+00  -8.1156E+07      0.000
   2   0.0000E+00   0.0000E+00  -1.1290E+08      0.000
 --------------------------------------------------------------------------------

 
 SOLVING FOR HEAD 
     6 ITERATIONS FOR TIME STEP 112 IN STRESS PERIOD    1

 HEAD/DRAWDOWN PRINTOUT FLAG = 0     TOTAL BUDGET PRINTOUT FLAG = 0
 CELL-BY-CELL FLOW TERM FLAG = 1

 OUTPUT FLAGS FOR ALL LAYERS ARE THE SAME:
   HEAD    DRAWDOWN  HEAD  DRAWDOWN
 PRINTOUT  PRINTOUT  SAVE    SAVE
 ----------------------------------
     0         0       0       0



 STREAM LISTING     PERIOD      1   STEP      112

 LAYER ROW COL. STREAM  RCH.  FLOW INTO     FLOW TO   FLOW OUT OF   OVRLND.     DIRECT     STREAM       STREAM     STREAM     STREAM   STREAMBED  STREAMBED
                SEG.NO.  NO.  STRM. RCH.    AQUIFER    STRM. RCH.    RUNOFF     PRECIP       ET          HEAD       DEPTH      WIDTH   CONDCTNC.   GRADIENT

   1    2    5     1     1    6.9120E+05 -7.9930E+04   7.7113E+05  0.000E+00  0.000E+00  0.000E+00  1.25330E+02  1.382E+00  5.000E+00  5.000E+03 -3.197E+01
   1    3    5     1     2    7.7113E+05 -5.6058E+04   8.2719E+05  0.000E+00  0.000E+00  0.000E+00  1.24302E+02  1.458E+00  5.000E+00  5.000E+03 -2.242E+01
   1    4    5     1     3    8.2719E+05 -5.2708E+04   8.7990E+05  0.000E+00  0.000E+00  0.000E+00  1.23258E+02  1.516E+00  5.000E+00  5.000E+03 -2.108E+01
   1    4    6     1     4    8.7990E+05 -4.3029E+04   9.2292E+05  0.000E+00  0.000E+00  0.000E+00  1.22205E+02  1.567E+00  5.000E+00  5.000E+03 -1.721E+01
   1    4    7     1     5    9.2292E+05 -2.0975E+04   9.4390E+05  0.000E+00  0.000E+00  0.000E+00  1.21410E+02  1.600E+00  5.000E+00  2.500E+03 -1.678E+01
   1    4    8     1     6    9.4390E+05 -3.4474E+04   9.7837E+05  0.000E+00  0.000E+00  0.000E+00  1.20749E+02  1.628E+00  5.000E+00  3.750E+03 -1.839E+01
   1    5    8     1     7    9.7837E+05 -3.6106E+04   1.0145E+06  0.000E+00  0.000E+00  0.000E+00  1.19819E+02  1.664E+00  5.000E+00  5.000E+03 -1.444E+01
   1    6    8     1     8    1.0145E+06 -2.4768E+04   1.0392E+06  0.000E+00  0.000E+00  0.000E+00  1.18746E+02  1.694E+00  5.000E+00  5.000E+03 -9.907E+00
   1   12    9     2     1    1.3334E+06 -2.6176E+04   1.3595E+06  0.000E+00  0.000E+00  0.000E+00  1.16618E+02  2.178E+00  5.000E+00  5.000E+03 -1.047E+01
   1   13    9     2     2    1.3595E+06 -4.0959E+04   1.4005E+06  0.000E+00  0.000E+00  0.000E+00  1.15830E+02  2.211E+00  5.000E+00  5.000E+03 -1.638E+01
   1   14   10     2     3    1.4005E+06 -2.2123E+04   1.4226E+06  0.000E+00  0.000E+00  0.000E+00  1.15220E+02  2.241E+00  5.000E+00  2.795E+03 -1.583E+01
   1   14   10     2     4    1.4226E+06 -2.3345E+04   1.4460E+06  0.000E+00  0.000E+00  0.000E+00  1.14783E+02  2.263E+00  5.000E+00  2.795E+03 -1.671E+01
   1   15   10     2     5    1.4460E+06 -3.9157E+04   1.4851E+06  0.000E+00  0.000E+00  0.000E+00  1.14173E+02  2.292E+00  5.000E+00  5.000E+03 -1.566E+01
   1   16   10     2     6    1.4851E+06 -2.6238E+04   1.5114E+06  0.000E+00  0.000E+00  0.000E+00  1.13383E+02  2.323E+00  5.000E+00  5.000E+03 -1.050E+01
   1   22   10     3     1    1.8288E+06 -2.7189E+04   1.8560E+06  0.000E+00  0.000E+00  0.000E+00  1.11475E+02  2.520E+00  5.000E+00  5.000E+03 -1.088E+01
   1   23   10     3     2    1.8560E+06 -3.9365E+04   1.8954E+06  0.000E+00  0.000E+00  0.000E+00  1.10675E+02  2.547E+00  5.000E+00  3.750E+03 -2.099E+01
   1   23   11     3     3    1.8954E+06 -2.3381E+04   1.9187E+06  0.000E+00  0.000E+00  0.000E+00  1.10109E+02  2.572E+00  5.000E+00  2.500E+03 -1.870E+01
   1   23   12     3     4    1.9187E+06 -4.6466E+04   1.9652E+06  0.000E+00  0.000E+00  0.000E+00  1.09428E+02  2.601E+00  5.000E+00  5.000E+03 -1.859E+01
   1   23   13     3     5    1.9652E+06 -5.0146E+04   2.0154E+06  0.000E+00  0.000E+00  0.000E+00  1.08521E+02  2.639E+00  5.000E+00  5.000E+03 -2.006E+01
   1   23   14     3     6    2.0154E+06 -5.4010E+04   2.0694E+06  0.000E+00  0.000E+00  0.000E+00  1.07616E+02  2.680E+00  5.000E+00  5.000E+03 -2.160E+01
   1   23   15     3     7    2.0694E+06 -6.1536E+04   2.1309E+06  0.000E+00  0.000E+00  0.000E+00  1.06716E+02  2.726E+00  5.000E+00  5.000E+03 -2.461E+01
   1   23   16     3     8    2.1309E+06 -8.9940E+04   2.2208E+06  0.000E+00  0.000E+00  0.000E+00  1.05829E+02  2.784E+00  5.000E+00  5.000E+03 -3.598E+01





     0  LAKE CELLS ARE DRY.

 PERIOD     1     TIME STEP   112     TIME STEP LENGTH  7.6228E+00
 PERIOD TIME  6.5576E+02     TOTAL SIMULATION TIME  6.5576E+02


                 HYDROLOGIC BUDGET SUMMARIES FOR SIMULATED LAKES
     (ALL FLUID FLUXES ARE VOLUMES ADDED TO THE LAKE DURING PRESENT TIME STEP)
     -------------------------------------------------------------------------
 LAKE    STAGE         VOLUME     VOL.CHANGE      PRECIP     EVAPORATION        RUNOFF
   1   117.0157     8.5097E+07    5.0000E+03    5.5265E+05    4.9072E+05    0.0000E+00
   2   111.9372     5.3357E+07    1.0324E+04    5.5265E+05    4.9072E+05    0.0000E+00

            GROUND WATER            SURFACE WATER        WATER
 LAKE    INFLOW     OUTFLOW      INFLOW     OUTFLOW       USE
   1  2.1851E+06  0.0000E+00  7.9220E+06  1.0164E+07  0.0000E+00
   2  2.3682E+06  0.0000E+00  1.1521E+07  1.3941E+07  0.0000E+00

      CONNECTED LAKE   TIME-STEP         STAGE-CHANGE          PERCENT
 LAKE    INFLUX      SURFACE AREA   TIME STEP  CUMULATIVE    DISCREPANCY
   1   0.0000E+00     6.2500E+06   7.9945E-04 -1.2984E+01       0.000
   2   0.0000E+00     6.2500E+06   1.6515E-03 -1.8063E+01       0.000
 --------------------------------------------------------------------------------



            CUMULATIVE HYDROLOGIC BUDGET SUMMARIES FOR SIMULATED LAKES
     (ALL FLUID FLUXES ARE SUMS OF VOLUMES ADDED TO THE LAKE SINCE INITIAL TIME)
     ---------------------------------------------------------------------------
 LAKE       PRECIP       EVAP       RUNOFF
   1     4.7543E+07  4.2215E+07  0.0000E+00
   2     4.7543E+07  4.2215E+07  0.0000E+00

            GROUND WATER            SURFACE WATER
 LAKE    INFLOW     OUTFLOW      INFLOW     OUTFLOW
   1  1.1904E+08  1.5644E+06  6.1767E+08  8.2163E+08
   2  1.3781E+08  1.4259E+06  9.0012E+08  1.1547E+09

         WATER    CONNECTED LAKE   CHANGE       PERCENT
 LAKE     USE         INFLUX       IN VOL.    DISCREPANCY
   1   0.0000E+00   0.0000E+00  -8.1151E+07      0.000
   2   0.0000E+00   0.0000E+00  -1.1289E+08      0.000
 --------------------------------------------------------------------------------

 
 SOLVING FOR HEAD 
     6 ITERATIONS FOR TIME STEP 113 IN STRESS PERIOD    1

 HEAD/DRAWDOWN PRINTOUT FLAG = 0     TOTAL BUDGET PRINTOUT FLAG = 0
 CELL-BY-CELL FLOW TERM FLAG = 1

 OUTPUT FLAGS FOR ALL LAYERS ARE THE SAME:
   HEAD    DRAWDOWN  HEAD  DRAWDOWN
 PRINTOUT  PRINTOUT  SAVE    SAVE
 ----------------------------------
     0         0       0       0



 STREAM LISTING     PERIOD      1   STEP      113

 LAYER ROW COL. STREAM  RCH.  FLOW INTO     FLOW TO   FLOW OUT OF   OVRLND.     DIRECT     STREAM       STREAM     STREAM     STREAM   STREAMBED  STREAMBED
                SEG.NO.  NO.  STRM. RCH.    AQUIFER    STRM. RCH.    RUNOFF     PRECIP       ET          HEAD       DEPTH      WIDTH   CONDCTNC.   GRADIENT

   1    2    5     1     1    6.9120E+05 -7.9936E+04   7.7114E+05  0.000E+00  0.000E+00  0.000E+00  1.25330E+02  1.382E+00  5.000E+00  5.000E+03 -3.197E+01
   1    3    5     1     2    7.7114E+05 -5.6076E+04   8.2721E+05  0.000E+00  0.000E+00  0.000E+00  1.24302E+02  1.458E+00  5.000E+00  5.000E+03 -2.243E+01
   1    4    5     1     3    8.2721E+05 -5.2747E+04   8.7996E+05  0.000E+00  0.000E+00  0.000E+00  1.23258E+02  1.516E+00  5.000E+00  5.000E+03 -2.110E+01
   1    4    6     1     4    8.7996E+05 -4.3064E+04   9.2302E+05  0.000E+00  0.000E+00  0.000E+00  1.22205E+02  1.567E+00  5.000E+00  5.000E+03 -1.723E+01
   1    4    7     1     5    9.2302E+05 -2.0991E+04   9.4401E+05  0.000E+00  0.000E+00  0.000E+00  1.21410E+02  1.600E+00  5.000E+00  2.500E+03 -1.679E+01
   1    4    8     1     6    9.4401E+05 -3.4498E+04   9.7851E+05  0.000E+00  0.000E+00  0.000E+00  1.20749E+02  1.628E+00  5.000E+00  3.750E+03 -1.840E+01
   1    5    8     1     7    9.7851E+05 -3.6149E+04   1.0147E+06  0.000E+00  0.000E+00  0.000E+00  1.19819E+02  1.664E+00  5.000E+00  5.000E+03 -1.446E+01
   1    6    8     1     8    1.0147E+06 -2.4804E+04   1.0395E+06  0.000E+00  0.000E+00  0.000E+00  1.18746E+02  1.694E+00  5.000E+00  5.000E+03 -9.921E+00
   1   12    9     2     1    1.3342E+06 -2.6236E+04   1.3604E+06  0.000E+00  0.000E+00  0.000E+00  1.16619E+02  2.179E+00  5.000E+00  5.000E+03 -1.049E+01
   1   13    9     2     2    1.3604E+06 -4.1067E+04   1.4015E+06  0.000E+00  0.000E+00  0.000E+00  1.15831E+02  2.212E+00  5.000E+00  5.000E+03 -1.643E+01
   1   14   10     2     3    1.4015E+06 -2.2180E+04   1.4236E+06  0.000E+00  0.000E+00  0.000E+00  1.15221E+02  2.242E+00  5.000E+00  2.795E+03 -1.587E+01
   1   14   10     2     4    1.4236E+06 -2.3402E+04   1.4470E+06  0.000E+00  0.000E+00  0.000E+00  1.14784E+02  2.264E+00  5.000E+00  2.795E+03 -1.675E+01
   1   15   10     2     5    1.4470E+06 -3.9254E+04   1.4863E+06  0.000E+00  0.000E+00  0.000E+00  1.14174E+02  2.293E+00  5.000E+00  5.000E+03 -1.570E+01
   1   16   10     2     6    1.4863E+06 -2.6300E+04   1.5126E+06  0.000E+00  0.000E+00  0.000E+00  1.13384E+02  2.324E+00  5.000E+00  5.000E+03 -1.052E+01
   1   22   10     3     1    1.8307E+06 -2.7226E+04   1.8580E+06  0.000E+00  0.000E+00  0.000E+00  1.11477E+02  2.521E+00  5.000E+00  5.000E+03 -1.089E+01
   1   23   10     3     2    1.8580E+06 -3.9408E+04   1.8974E+06  0.000E+00  0.000E+00  0.000E+00  1.10677E+02  2.549E+00  5.000E+00  3.750E+03 -2.102E+01
   1   23   11     3     3    1.8974E+06 -2.3403E+04   1.9208E+06  0.000E+00  0.000E+00  0.000E+00  1.10111E+02  2.574E+00  5.000E+00  2.500E+03 -1.872E+01
   1   23   12     3     4    1.9208E+06 -4.6504E+04   1.9673E+06  0.000E+00  0.000E+00  0.000E+00  1.09430E+02  2.602E+00  5.000E+00  5.000E+03 -1.860E+01
   1   23   13     3     5    1.9673E+06 -5.0182E+04   2.0175E+06  0.000E+00  0.000E+00  0.000E+00  1.08523E+02  2.641E+00  5.000E+00  5.000E+03 -2.007E+01
   1   23   14     3     6    2.0175E+06 -5.4037E+04   2.0715E+06  0.000E+00  0.000E+00  0.000E+00  1.07618E+02  2.682E+00  5.000E+00  5.000E+03 -2.161E+01
   1   23   15     3     7    2.0715E+06 -6.1554E+04   2.1331E+06  0.000E+00  0.000E+00  0.000E+00  1.06718E+02  2.727E+00  5.000E+00  5.000E+03 -2.462E+01
   1   23   16     3     8    2.1331E+06 -8.9945E+04   2.2230E+06  0.000E+00  0.000E+00  0.000E+00  1.05830E+02  2.786E+00  5.000E+00  5.000E+03 -3.598E+01





     0  LAKE CELLS ARE DRY.

 PERIOD     1     TIME STEP   113     TIME STEP LENGTH  7.6609E+00
 PERIOD TIME  6.6342E+02     TOTAL SIMULATION TIME  6.6342E+02


                 HYDROLOGIC BUDGET SUMMARIES FOR SIMULATED LAKES
     (ALL FLUID FLUXES ARE VOLUMES ADDED TO THE LAKE DURING PRESENT TIME STEP)
     -------------------------------------------------------------------------
 LAKE    STAGE         VOLUME     VOL.CHANGE      PRECIP     EVAPORATION        RUNOFF
   1   117.0164     8.5102E+07    4.7600E+03    5.5541E+05    4.9317E+05    0.0000E+00
   2   111.9388     5.3367E+07    9.8440E+03    5.5541E+05    4.9317E+05    0.0000E+00

            GROUND WATER            SURFACE WATER        WATER
 LAKE    INFLOW     OUTFLOW      INFLOW     OUTFLOW       USE
   1  2.2001E+06  0.0000E+00  7.9632E+06  1.0221E+07  0.0000E+00
   2  2.3849E+06  0.0000E+00  1.1588E+07  1.4025E+07  0.0000E+00

      CONNECTED LAKE   TIME-STEP         STAGE-CHANGE          PERCENT
 LAKE    INFLUX      SURFACE AREA   TIME STEP  CUMULATIVE    DISCREPANCY
   1   0.0000E+00     6.2500E+06   7.6193E-04 -1.2984E+01       0.000
   2   0.0000E+00     6.2500E+06   1.5754E-03 -1.8061E+01       0.000
 --------------------------------------------------------------------------------



            CUMULATIVE HYDROLOGIC BUDGET SUMMARIES FOR SIMULATED LAKES
     (ALL FLUID FLUXES ARE SUMS OF VOLUMES ADDED TO THE LAKE SINCE INITIAL TIME)
     ---------------------------------------------------------------------------
 LAKE       PRECIP       EVAP       RUNOFF
   1     4.8098E+07  4.2708E+07  0.0000E+00
   2     4.8098E+07  4.2708E+07  0.0000E+00

            GROUND WATER            SURFACE WATER
 LAKE    INFLOW     OUTFLOW      INFLOW     OUTFLOW
   1  1.2124E+08  1.5644E+06  6.2564E+08  8.3185E+08
   2  1.4019E+08  1.4259E+06  9.1171E+08  1.1688E+09

         WATER    CONNECTED LAKE   CHANGE       PERCENT
 LAKE     USE         INFLUX       IN VOL.    DISCREPANCY
   1   0.0000E+00   0.0000E+00  -8.1147E+07      0.000
   2   0.0000E+00   0.0000E+00  -1.1288E+08      0.000
 --------------------------------------------------------------------------------

 
 SOLVING FOR HEAD 
     6 ITERATIONS FOR TIME STEP 114 IN STRESS PERIOD    1

 HEAD/DRAWDOWN PRINTOUT FLAG = 0     TOTAL BUDGET PRINTOUT FLAG = 0
 CELL-BY-CELL FLOW TERM FLAG = 1

 OUTPUT FLAGS FOR ALL LAYERS ARE THE SAME:
   HEAD    DRAWDOWN  HEAD  DRAWDOWN
 PRINTOUT  PRINTOUT  SAVE    SAVE
 ----------------------------------
     0         0       0       0



 STREAM LISTING     PERIOD      1   STEP      114

 LAYER ROW COL. STREAM  RCH.  FLOW INTO     FLOW TO   FLOW OUT OF   OVRLND.     DIRECT     STREAM       STREAM     STREAM     STREAM   STREAMBED  STREAMBED
                SEG.NO.  NO.  STRM. RCH.    AQUIFER    STRM. RCH.    RUNOFF     PRECIP       ET          HEAD       DEPTH      WIDTH   CONDCTNC.   GRADIENT

   1    2    5     1     1    6.9120E+05 -7.9941E+04   7.7114E+05  0.000E+00  0.000E+00  0.000E+00  1.25330E+02  1.382E+00  5.000E+00  5.000E+03 -3.198E+01
   1    3    5     1     2    7.7114E+05 -5.6093E+04   8.2723E+05  0.000E+00  0.000E+00  0.000E+00  1.24302E+02  1.458E+00  5.000E+00  5.000E+03 -2.244E+01
   1    4    5     1     3    8.2723E+05 -5.2783E+04   8.8002E+05  0.000E+00  0.000E+00  0.000E+00  1.23258E+02  1.516E+00  5.000E+00  5.000E+03 -2.111E+01
   1    4    6     1     4    8.8002E+05 -4.3097E+04   9.2312E+05  0.000E+00  0.000E+00  0.000E+00  1.22205E+02  1.567E+00  5.000E+00  5.000E+03 -1.724E+01
   1    4    7     1     5    9.2312E+05 -2.1005E+04   9.4412E+05  0.000E+00  0.000E+00  0.000E+00  1.21410E+02  1.600E+00  5.000E+00  2.500E+03 -1.680E+01
   1    4    8     1     6    9.4412E+05 -3.4520E+04   9.7864E+05  0.000E+00  0.000E+00  0.000E+00  1.20749E+02  1.629E+00  5.000E+00  3.750E+03 -1.841E+01
   1    5    8     1     7    9.7864E+05 -3.6190E+04   1.0148E+06  0.000E+00  0.000E+00  0.000E+00  1.19819E+02  1.664E+00  5.000E+00  5.000E+03 -1.448E+01
   1    6    8     1     8    1.0148E+06 -2.4837E+04   1.0397E+06  0.000E+00  0.000E+00  0.000E+00  1.18746E+02  1.695E+00  5.000E+00  5.000E+03 -9.935E+00
   1   12    9     2     1    1.3349E+06 -2.6293E+04   1.3612E+06  0.000E+00  0.000E+00  0.000E+00  1.16620E+02  2.180E+00  5.000E+00  5.000E+03 -1.052E+01
   1   13    9     2     2    1.3612E+06 -4.1170E+04   1.4024E+06  0.000E+00  0.000E+00  0.000E+00  1.15832E+02  2.213E+00  5.000E+00  5.000E+03 -1.647E+01
   1   14   10     2     3    1.4024E+06 -2.2235E+04   1.4246E+06  0.000E+00  0.000E+00  0.000E+00  1.15222E+02  2.243E+00  5.000E+00  2.795E+03 -1.591E+01
   1   14   10     2     4    1.4246E+06 -2.3456E+04   1.4480E+06  0.000E+00  0.000E+00  0.000E+00  1.14785E+02  2.265E+00  5.000E+00  2.795E+03 -1.678E+01
   1   15   10     2     5    1.4480E+06 -3.9348E+04   1.4874E+06  0.000E+00  0.000E+00  0.000E+00  1.14175E+02  2.294E+00  5.000E+00  5.000E+03 -1.574E+01
   1   16   10     2     6    1.4874E+06 -2.6358E+04   1.5137E+06  0.000E+00  0.000E+00  0.000E+00  1.13385E+02  2.325E+00  5.000E+00  5.000E+03 -1.054E+01
   1   22   10     3     1    1.8326E+06 -2.7261E+04   1.8598E+06  0.000E+00  0.000E+00  0.000E+00  1.11479E+02  2.523E+00  5.000E+00  5.000E+03 -1.090E+01
   1   23   10     3     2    1.8598E+06 -3.9448E+04   1.8993E+06  0.000E+00  0.000E+00  0.000E+00  1.10678E+02  2.550E+00  5.000E+00  3.750E+03 -2.104E+01
   1   23   11     3     3    1.8993E+06 -2.3423E+04   1.9227E+06  0.000E+00  0.000E+00  0.000E+00  1.10113E+02  2.576E+00  5.000E+00  2.500E+03 -1.874E+01
   1   23   12     3     4    1.9227E+06 -4.6541E+04   1.9692E+06  0.000E+00  0.000E+00  0.000E+00  1.09431E+02  2.604E+00  5.000E+00  5.000E+03 -1.862E+01
   1   23   13     3     5    1.9692E+06 -5.0216E+04   2.0195E+06  0.000E+00  0.000E+00  0.000E+00  1.08524E+02  2.642E+00  5.000E+00  5.000E+03 -2.009E+01
   1   23   14     3     6    2.0195E+06 -5.4064E+04   2.0735E+06  0.000E+00  0.000E+00  0.000E+00  1.07620E+02  2.684E+00  5.000E+00  5.000E+03 -2.163E+01
   1   23   15     3     7    2.0735E+06 -6.1571E+04   2.1351E+06  0.000E+00  0.000E+00  0.000E+00  1.06719E+02  2.729E+00  5.000E+00  5.000E+03 -2.463E+01
   1   23   16     3     8    2.1351E+06 -8.9949E+04   2.2250E+06  0.000E+00  0.000E+00  0.000E+00  1.05832E+02  2.788E+00  5.000E+00  5.000E+03 -3.598E+01





     0  LAKE CELLS ARE DRY.

 PERIOD     1     TIME STEP   114     TIME STEP LENGTH  7.6992E+00
 PERIOD TIME  6.7112E+02     TOTAL SIMULATION TIME  6.7112E+02


                 HYDROLOGIC BUDGET SUMMARIES FOR SIMULATED LAKES
     (ALL FLUID FLUXES ARE VOLUMES ADDED TO THE LAKE DURING PRESENT TIME STEP)
     -------------------------------------------------------------------------
 LAKE    STAGE         VOLUME     VOL.CHANGE      PRECIP     EVAPORATION        RUNOFF
   1   117.0171     8.5106E+07    4.4880E+03    5.5819E+05    4.9564E+05    0.0000E+00
   2   111.9403     5.3376E+07    9.3360E+03    5.5819E+05    4.9564E+05    0.0000E+00

            GROUND WATER            SURFACE WATER        WATER
 LAKE    INFLOW     OUTFLOW      INFLOW     OUTFLOW       USE
   1  2.2149E+06  0.0000E+00  8.0046E+06  1.0278E+07  0.0000E+00
   2  2.4014E+06  0.0000E+00  1.1655E+07  1.4109E+07  0.0000E+00

      CONNECTED LAKE   TIME-STEP         STAGE-CHANGE          PERCENT
 LAKE    INFLUX      SURFACE AREA   TIME STEP  CUMULATIVE    DISCREPANCY
   1   0.0000E+00     6.2500E+06   7.1801E-04 -1.2983E+01       0.000
   2   0.0000E+00     6.2500E+06   1.4936E-03 -1.8060E+01       0.000
 --------------------------------------------------------------------------------



            CUMULATIVE HYDROLOGIC BUDGET SUMMARIES FOR SIMULATED LAKES
     (ALL FLUID FLUXES ARE SUMS OF VOLUMES ADDED TO THE LAKE SINCE INITIAL TIME)
     ---------------------------------------------------------------------------
 LAKE       PRECIP       EVAP       RUNOFF
   1     4.8656E+07  4.3203E+07  0.0000E+00
   2     4.8656E+07  4.3203E+07  0.0000E+00

            GROUND WATER            SURFACE WATER
 LAKE    INFLOW     OUTFLOW      INFLOW     OUTFLOW
   1  1.2346E+08  1.5644E+06  6.3364E+08  8.4213E+08
   2  1.4260E+08  1.4259E+06  9.2337E+08  1.1829E+09

         WATER    CONNECTED LAKE   CHANGE       PERCENT
 LAKE     USE         INFLUX       IN VOL.    DISCREPANCY
   1   0.0000E+00   0.0000E+00  -8.1142E+07      0.000
   2   0.0000E+00   0.0000E+00  -1.1287E+08      0.000
 --------------------------------------------------------------------------------

 
 SOLVING FOR HEAD 
     6 ITERATIONS FOR TIME STEP 115 IN STRESS PERIOD    1

 HEAD/DRAWDOWN PRINTOUT FLAG = 0     TOTAL BUDGET PRINTOUT FLAG = 0
 CELL-BY-CELL FLOW TERM FLAG = 1

 OUTPUT FLAGS FOR ALL LAYERS ARE THE SAME:
   HEAD    DRAWDOWN  HEAD  DRAWDOWN
 PRINTOUT  PRINTOUT  SAVE    SAVE
 ----------------------------------
     0         0       0       0



 STREAM LISTING     PERIOD      1   STEP      115

 LAYER ROW COL. STREAM  RCH.  FLOW INTO     FLOW TO   FLOW OUT OF   OVRLND.     DIRECT     STREAM       STREAM     STREAM     STREAM   STREAMBED  STREAMBED
                SEG.NO.  NO.  STRM. RCH.    AQUIFER    STRM. RCH.    RUNOFF     PRECIP       ET          HEAD       DEPTH      WIDTH   CONDCTNC.   GRADIENT

   1    2    5     1     1    6.9120E+05 -7.9947E+04   7.7115E+05  0.000E+00  0.000E+00  0.000E+00  1.25330E+02  1.382E+00  5.000E+00  5.000E+03 -3.198E+01
   1    3    5     1     2    7.7115E+05 -5.6110E+04   8.2726E+05  0.000E+00  0.000E+00  0.000E+00  1.24302E+02  1.458E+00  5.000E+00  5.000E+03 -2.244E+01
   1    4    5     1     3    8.2726E+05 -5.2818E+04   8.8007E+05  0.000E+00  0.000E+00  0.000E+00  1.23258E+02  1.516E+00  5.000E+00  5.000E+03 -2.113E+01
   1    4    6     1     4    8.8007E+05 -4.3128E+04   9.2320E+05  0.000E+00  0.000E+00  0.000E+00  1.22205E+02  1.567E+00  5.000E+00  5.000E+03 -1.725E+01
   1    4    7     1     5    9.2320E+05 -2.1019E+04   9.4422E+05  0.000E+00  0.000E+00  0.000E+00  1.21411E+02  1.600E+00  5.000E+00  2.500E+03 -1.682E+01
   1    4    8     1     6    9.4422E+05 -3.4541E+04   9.7876E+05  0.000E+00  0.000E+00  0.000E+00  1.20749E+02  1.629E+00  5.000E+00  3.750E+03 -1.842E+01
   1    5    8     1     7    9.7876E+05 -3.6228E+04   1.0150E+06  0.000E+00  0.000E+00  0.000E+00  1.19820E+02  1.664E+00  5.000E+00  5.000E+03 -1.449E+01
   1    6    8     1     8    1.0150E+06 -2.4869E+04   1.0399E+06  0.000E+00  0.000E+00  0.000E+00  1.18746E+02  1.695E+00  5.000E+00  5.000E+03 -9.948E+00
   1   12    9     2     1    1.3356E+06 -2.6347E+04   1.3619E+06  0.000E+00  0.000E+00  0.000E+00  1.16620E+02  2.181E+00  5.000E+00  5.000E+03 -1.054E+01
   1   13    9     2     2    1.3619E+06 -4.1268E+04   1.4032E+06  0.000E+00  0.000E+00  0.000E+00  1.15832E+02  2.213E+00  5.000E+00  5.000E+03 -1.651E+01
   1   14   10     2     3    1.4032E+06 -2.2286E+04   1.4255E+06  0.000E+00  0.000E+00  0.000E+00  1.15223E+02  2.244E+00  5.000E+00  2.795E+03 -1.595E+01
   1   14   10     2     4    1.4255E+06 -2.3508E+04   1.4490E+06  0.000E+00  0.000E+00  0.000E+00  1.14786E+02  2.265E+00  5.000E+00  2.795E+03 -1.682E+01
   1   15   10     2     5    1.4490E+06 -3.9437E+04   1.4884E+06  0.000E+00  0.000E+00  0.000E+00  1.14176E+02  2.295E+00  5.000E+00  5.000E+03 -1.577E+01
   1   16   10     2     6    1.4884E+06 -2.6414E+04   1.5148E+06  0.000E+00  0.000E+00  0.000E+00  1.13386E+02  2.326E+00  5.000E+00  5.000E+03 -1.057E+01
   1   22   10     3     1    1.8343E+06 -2.7295E+04   1.8616E+06  0.000E+00  0.000E+00  0.000E+00  1.11480E+02  2.524E+00  5.000E+00  5.000E+03 -1.092E+01
   1   23   10     3     2    1.8616E+06 -3.9487E+04   1.9011E+06  0.000E+00  0.000E+00  0.000E+00  1.10680E+02  2.552E+00  5.000E+00  3.750E+03 -2.106E+01
   1   23   11     3     3    1.9011E+06 -2.3443E+04   1.9245E+06  0.000E+00  0.000E+00  0.000E+00  1.10114E+02  2.577E+00  5.000E+00  2.500E+03 -1.875E+01
   1   23   12     3     4    1.9245E+06 -4.6575E+04   1.9711E+06  0.000E+00  0.000E+00  0.000E+00  1.09433E+02  2.605E+00  5.000E+00  5.000E+03 -1.863E+01
   1   23   13     3     5    1.9711E+06 -5.0248E+04   2.0213E+06  0.000E+00  0.000E+00  0.000E+00  1.08526E+02  2.644E+00  5.000E+00  5.000E+03 -2.010E+01
   1   23   14     3     6    2.0213E+06 -5.4089E+04   2.0754E+06  0.000E+00  0.000E+00  0.000E+00  1.07621E+02  2.685E+00  5.000E+00  5.000E+03 -2.164E+01
   1   23   15     3     7    2.0754E+06 -6.1587E+04   2.1370E+06  0.000E+00  0.000E+00  0.000E+00  1.06721E+02  2.730E+00  5.000E+00  5.000E+03 -2.463E+01
   1   23   16     3     8    2.1370E+06 -8.9953E+04   2.2270E+06  0.000E+00  0.000E+00  0.000E+00  1.05833E+02  2.789E+00  5.000E+00  5.000E+03 -3.598E+01





     0  LAKE CELLS ARE DRY.

 PERIOD     1     TIME STEP   115     TIME STEP LENGTH  7.7377E+00
 PERIOD TIME  6.7886E+02     TOTAL SIMULATION TIME  6.7886E+02


                 HYDROLOGIC BUDGET SUMMARIES FOR SIMULATED LAKES
     (ALL FLUID FLUXES ARE VOLUMES ADDED TO THE LAKE DURING PRESENT TIME STEP)
     -------------------------------------------------------------------------
 LAKE    STAGE         VOLUME     VOL.CHANGE      PRECIP     EVAPORATION        RUNOFF
   1   117.0178     8.5111E+07    4.2480E+03    5.6098E+05    4.9811E+05    0.0000E+00
   2   111.9417     5.3385E+07    8.8600E+03    5.6098E+05    4.9811E+05    0.0000E+00

            GROUND WATER            SURFACE WATER        WATER
 LAKE    INFLOW     OUTFLOW      INFLOW     OUTFLOW       USE
   1  2.2296E+06  0.0000E+00  8.0461E+06  1.0334E+07  0.0000E+00
   2  2.4177E+06  0.0000E+00  1.1721E+07  1.4193E+07  0.0000E+00

      CONNECTED LAKE   TIME-STEP         STAGE-CHANGE          PERCENT
 LAKE    INFLUX      SURFACE AREA   TIME STEP  CUMULATIVE    DISCREPANCY
   1   0.0000E+00     6.2500E+06   6.7962E-04 -1.2982E+01       0.000
   2   0.0000E+00     6.2500E+06   1.4179E-03 -1.8058E+01       0.000
 --------------------------------------------------------------------------------



            CUMULATIVE HYDROLOGIC BUDGET SUMMARIES FOR SIMULATED LAKES
     (ALL FLUID FLUXES ARE SUMS OF VOLUMES ADDED TO THE LAKE SINCE INITIAL TIME)
     ---------------------------------------------------------------------------
 LAKE       PRECIP       EVAP       RUNOFF
   1     4.9217E+07  4.3702E+07  0.0000E+00
   2     4.9217E+07  4.3702E+07  0.0000E+00

            GROUND WATER            SURFACE WATER
 LAKE    INFLOW     OUTFLOW      INFLOW     OUTFLOW
   1  1.2569E+08  1.5644E+06  6.4169E+08  8.5247E+08
   2  1.4501E+08  1.4259E+06  9.3509E+08  1.1971E+09

         WATER    CONNECTED LAKE   CHANGE       PERCENT
 LAKE     USE         INFLUX       IN VOL.    DISCREPANCY
   1   0.0000E+00   0.0000E+00  -8.1138E+07      0.000
   2   0.0000E+00   0.0000E+00  -1.1286E+08      0.000
 --------------------------------------------------------------------------------

 
 SOLVING FOR HEAD 
     6 ITERATIONS FOR TIME STEP 116 IN STRESS PERIOD    1

 HEAD/DRAWDOWN PRINTOUT FLAG = 0     TOTAL BUDGET PRINTOUT FLAG = 0
 CELL-BY-CELL FLOW TERM FLAG = 1

 OUTPUT FLAGS FOR ALL LAYERS ARE THE SAME:
   HEAD    DRAWDOWN  HEAD  DRAWDOWN
 PRINTOUT  PRINTOUT  SAVE    SAVE
 ----------------------------------
     0         0       0       0



 STREAM LISTING     PERIOD      1   STEP      116

 LAYER ROW COL. STREAM  RCH.  FLOW INTO     FLOW TO   FLOW OUT OF   OVRLND.     DIRECT     STREAM       STREAM     STREAM     STREAM   STREAMBED  STREAMBED
                SEG.NO.  NO.  STRM. RCH.    AQUIFER    STRM. RCH.    RUNOFF     PRECIP       ET          HEAD       DEPTH      WIDTH   CONDCTNC.   GRADIENT

   1    2    5     1     1    6.9120E+05 -7.9952E+04   7.7115E+05  0.000E+00  0.000E+00  0.000E+00  1.25330E+02  1.382E+00  5.000E+00  5.000E+03 -3.198E+01
   1    3    5     1     2    7.7115E+05 -5.6125E+04   8.2728E+05  0.000E+00  0.000E+00  0.000E+00  1.24302E+02  1.458E+00  5.000E+00  5.000E+03 -2.245E+01
   1    4    5     1     3    8.2728E+05 -5.2851E+04   8.8013E+05  0.000E+00  0.000E+00  0.000E+00  1.23258E+02  1.516E+00  5.000E+00  5.000E+03 -2.114E+01
   1    4    6     1     4    8.8013E+05 -4.3158E+04   9.2328E+05  0.000E+00  0.000E+00  0.000E+00  1.22205E+02  1.567E+00  5.000E+00  5.000E+03 -1.726E+01
   1    4    7     1     5    9.2328E+05 -2.1032E+04   9.4432E+05  0.000E+00  0.000E+00  0.000E+00  1.21411E+02  1.600E+00  5.000E+00  2.500E+03 -1.683E+01
   1    4    8     1     6    9.4432E+05 -3.4561E+04   9.7888E+05  0.000E+00  0.000E+00  0.000E+00  1.20749E+02  1.629E+00  5.000E+00  3.750E+03 -1.843E+01
   1    5    8     1     7    9.7888E+05 -3.6264E+04   1.0151E+06  0.000E+00  0.000E+00  0.000E+00  1.19820E+02  1.664E+00  5.000E+00  5.000E+03 -1.451E+01
   1    6    8     1     8    1.0151E+06 -2.4899E+04   1.0400E+06  0.000E+00  0.000E+00  0.000E+00  1.18747E+02  1.695E+00  5.000E+00  5.000E+03 -9.960E+00
   1   12    9     2     1    1.3363E+06 -2.6399E+04   1.3627E+06  0.000E+00  0.000E+00  0.000E+00  1.16621E+02  2.181E+00  5.000E+00  5.000E+03 -1.056E+01
   1   13    9     2     2    1.3627E+06 -4.1361E+04   1.4040E+06  0.000E+00  0.000E+00  0.000E+00  1.15833E+02  2.214E+00  5.000E+00  5.000E+03 -1.654E+01
   1   14   10     2     3    1.4040E+06 -2.2336E+04   1.4263E+06  0.000E+00  0.000E+00  0.000E+00  1.15224E+02  2.245E+00  5.000E+00  2.795E+03 -1.598E+01
   1   14   10     2     4    1.4263E+06 -2.3557E+04   1.4499E+06  0.000E+00  0.000E+00  0.000E+00  1.14787E+02  2.266E+00  5.000E+00  2.795E+03 -1.686E+01
   1   15   10     2     5    1.4499E+06 -3.9522E+04   1.4894E+06  0.000E+00  0.000E+00  0.000E+00  1.14177E+02  2.296E+00  5.000E+00  5.000E+03 -1.581E+01
   1   16   10     2     6    1.4894E+06 -2.6468E+04   1.5159E+06  0.000E+00  0.000E+00  0.000E+00  1.13387E+02  2.327E+00  5.000E+00  5.000E+03 -1.059E+01
   1   22   10     3     1    1.8359E+06 -2.7327E+04   1.8633E+06  0.000E+00  0.000E+00  0.000E+00  1.11481E+02  2.526E+00  5.000E+00  5.000E+03 -1.093E+01
   1   23   10     3     2    1.8633E+06 -3.9523E+04   1.9028E+06  0.000E+00  0.000E+00  0.000E+00  1.10681E+02  2.553E+00  5.000E+00  3.750E+03 -2.108E+01
   1   23   11     3     3    1.9028E+06 -2.3462E+04   1.9263E+06  0.000E+00  0.000E+00  0.000E+00  1.10115E+02  2.579E+00  5.000E+00  2.500E+03 -1.877E+01
   1   23   12     3     4    1.9263E+06 -4.6608E+04   1.9729E+06  0.000E+00  0.000E+00  0.000E+00  1.09434E+02  2.607E+00  5.000E+00  5.000E+03 -1.864E+01
   1   23   13     3     5    1.9729E+06 -5.0278E+04   2.0231E+06  0.000E+00  0.000E+00  0.000E+00  1.08527E+02  2.645E+00  5.000E+00  5.000E+03 -2.011E+01
   1   23   14     3     6    2.0231E+06 -5.4112E+04   2.0773E+06  0.000E+00  0.000E+00  0.000E+00  1.07623E+02  2.687E+00  5.000E+00  5.000E+03 -2.164E+01
   1   23   15     3     7    2.0773E+06 -6.1602E+04   2.1389E+06  0.000E+00  0.000E+00  0.000E+00  1.06722E+02  2.732E+00  5.000E+00  5.000E+03 -2.464E+01
   1   23   16     3     8    2.1389E+06 -8.9957E+04   2.2288E+06  0.000E+00  0.000E+00  0.000E+00  1.05835E+02  2.790E+00  5.000E+00  5.000E+03 -3.598E+01





     0  LAKE CELLS ARE DRY.

 PERIOD     1     TIME STEP   116     TIME STEP LENGTH  7.7764E+00
 PERIOD TIME  6.8664E+02     TOTAL SIMULATION TIME  6.8664E+02


                 HYDROLOGIC BUDGET SUMMARIES FOR SIMULATED LAKES
     (ALL FLUID FLUXES ARE VOLUMES ADDED TO THE LAKE DURING PRESENT TIME STEP)
     -------------------------------------------------------------------------
 LAKE    STAGE         VOLUME     VOL.CHANGE      PRECIP     EVAPORATION        RUNOFF
   1   117.0185     8.5115E+07    4.0320E+03    5.6379E+05    5.0060E+05    0.0000E+00
   2   111.9431     5.3393E+07    8.4400E+03    5.6379E+05    5.0060E+05    0.0000E+00

            GROUND WATER            SURFACE WATER        WATER
 LAKE    INFLOW     OUTFLOW      INFLOW     OUTFLOW       USE
   1  2.2443E+06  0.0000E+00  8.0877E+06  1.0391E+07  0.0000E+00
   2  2.4340E+06  0.0000E+00  1.1788E+07  1.4277E+07  0.0000E+00

      CONNECTED LAKE   TIME-STEP         STAGE-CHANGE          PERCENT
 LAKE    INFLUX      SURFACE AREA   TIME STEP  CUMULATIVE    DISCREPANCY
   1   0.0000E+00     6.2500E+06   6.4530E-04 -1.2982E+01       0.000
   2   0.0000E+00     6.2500E+06   1.3505E-03 -1.8057E+01       0.000
 --------------------------------------------------------------------------------



            CUMULATIVE HYDROLOGIC BUDGET SUMMARIES FOR SIMULATED LAKES
     (ALL FLUID FLUXES ARE SUMS OF VOLUMES ADDED TO THE LAKE SINCE INITIAL TIME)
     ---------------------------------------------------------------------------
 LAKE       PRECIP       EVAP       RUNOFF
   1     4.9781E+07  4.4202E+07  0.0000E+00
   2     4.9781E+07  4.4202E+07  0.0000E+00

            GROUND WATER            SURFACE WATER
 LAKE    INFLOW     OUTFLOW      INFLOW     OUTFLOW
   1  1.2793E+08  1.5644E+06  6.4978E+08  8.6286E+08
   2  1.4745E+08  1.4259E+06  9.4688E+08  1.2113E+09

         WATER    CONNECTED LAKE   CHANGE       PERCENT
 LAKE     USE         INFLUX       IN VOL.    DISCREPANCY
   1   0.0000E+00   0.0000E+00  -8.1134E+07      0.000
   2   0.0000E+00   0.0000E+00  -1.1286E+08      0.000
 --------------------------------------------------------------------------------

 
 SOLVING FOR HEAD 
     6 ITERATIONS FOR TIME STEP 117 IN STRESS PERIOD    1

 HEAD/DRAWDOWN PRINTOUT FLAG = 0     TOTAL BUDGET PRINTOUT FLAG = 0
 CELL-BY-CELL FLOW TERM FLAG = 1

 OUTPUT FLAGS FOR ALL LAYERS ARE THE SAME:
   HEAD    DRAWDOWN  HEAD  DRAWDOWN
 PRINTOUT  PRINTOUT  SAVE    SAVE
 ----------------------------------
     0         0       0       0



 STREAM LISTING     PERIOD      1   STEP      117

 LAYER ROW COL. STREAM  RCH.  FLOW INTO     FLOW TO   FLOW OUT OF   OVRLND.     DIRECT     STREAM       STREAM     STREAM     STREAM   STREAMBED  STREAMBED
                SEG.NO.  NO.  STRM. RCH.    AQUIFER    STRM. RCH.    RUNOFF     PRECIP       ET          HEAD       DEPTH      WIDTH   CONDCTNC.   GRADIENT

   1    2    5     1     1    6.9120E+05 -7.9956E+04   7.7116E+05  0.000E+00  0.000E+00  0.000E+00  1.25330E+02  1.382E+00  5.000E+00  5.000E+03 -3.198E+01
   1    3    5     1     2    7.7116E+05 -5.6139E+04   8.2730E+05  0.000E+00  0.000E+00  0.000E+00  1.24302E+02  1.458E+00  5.000E+00  5.000E+03 -2.246E+01
   1    4    5     1     3    8.2730E+05 -5.2881E+04   8.8018E+05  0.000E+00  0.000E+00  0.000E+00  1.23258E+02  1.517E+00  5.000E+00  5.000E+03 -2.115E+01
   1    4    6     1     4    8.8018E+05 -4.3186E+04   9.2336E+05  0.000E+00  0.000E+00  0.000E+00  1.22205E+02  1.567E+00  5.000E+00  5.000E+03 -1.727E+01
   1    4    7     1     5    9.2336E+05 -2.1045E+04   9.4441E+05  0.000E+00  0.000E+00  0.000E+00  1.21411E+02  1.600E+00  5.000E+00  2.500E+03 -1.684E+01
   1    4    8     1     6    9.4441E+05 -3.4580E+04   9.7899E+05  0.000E+00  0.000E+00  0.000E+00  1.20750E+02  1.629E+00  5.000E+00  3.750E+03 -1.844E+01
   1    5    8     1     7    9.7899E+05 -3.6298E+04   1.0153E+06  0.000E+00  0.000E+00  0.000E+00  1.19820E+02  1.665E+00  5.000E+00  5.000E+03 -1.452E+01
   1    6    8     1     8    1.0153E+06 -2.4927E+04   1.0402E+06  0.000E+00  0.000E+00  0.000E+00  1.18747E+02  1.695E+00  5.000E+00  5.000E+03 -9.971E+00
   1   12    9     2     1    1.3369E+06 -2.6448E+04   1.3633E+06  0.000E+00  0.000E+00  0.000E+00  1.16622E+02  2.182E+00  5.000E+00  5.000E+03 -1.058E+01
   1   13    9     2     2    1.3633E+06 -4.1450E+04   1.4048E+06  0.000E+00  0.000E+00  0.000E+00  1.15834E+02  2.215E+00  5.000E+00  5.000E+03 -1.658E+01
   1   14   10     2     3    1.4048E+06 -2.2383E+04   1.4272E+06  0.000E+00  0.000E+00  0.000E+00  1.15225E+02  2.245E+00  5.000E+00  2.795E+03 -1.602E+01
   1   14   10     2     4    1.4272E+06 -2.3604E+04   1.4508E+06  0.000E+00  0.000E+00  0.000E+00  1.14788E+02  2.267E+00  5.000E+00  2.795E+03 -1.689E+01
   1   15   10     2     5    1.4508E+06 -3.9603E+04   1.4904E+06  0.000E+00  0.000E+00  0.000E+00  1.14178E+02  2.297E+00  5.000E+00  5.000E+03 -1.584E+01
   1   16   10     2     6    1.4904E+06 -2.6519E+04   1.5169E+06  0.000E+00  0.000E+00  0.000E+00  1.13388E+02  2.328E+00  5.000E+00  5.000E+03 -1.061E+01
   1   22   10     3     1    1.8375E+06 -2.7357E+04   1.8649E+06  0.000E+00  0.000E+00  0.000E+00  1.11483E+02  2.527E+00  5.000E+00  5.000E+03 -1.094E+01
   1   23   10     3     2    1.8649E+06 -3.9557E+04   1.9044E+06  0.000E+00  0.000E+00  0.000E+00  1.10682E+02  2.554E+00  5.000E+00  3.750E+03 -2.110E+01
   1   23   11     3     3    1.9044E+06 -2.3480E+04   1.9279E+06  0.000E+00  0.000E+00  0.000E+00  1.10117E+02  2.580E+00  5.000E+00  2.500E+03 -1.878E+01
   1   23   12     3     4    1.9279E+06 -4.6639E+04   1.9745E+06  0.000E+00  0.000E+00  0.000E+00  1.09436E+02  2.608E+00  5.000E+00  5.000E+03 -1.866E+01
   1   23   13     3     5    1.9745E+06 -5.0308E+04   2.0248E+06  0.000E+00  0.000E+00  0.000E+00  1.08529E+02  2.647E+00  5.000E+00  5.000E+03 -2.012E+01
   1   23   14     3     6    2.0248E+06 -5.4135E+04   2.0790E+06  0.000E+00  0.000E+00  0.000E+00  1.07624E+02  2.688E+00  5.000E+00  5.000E+03 -2.165E+01
   1   23   15     3     7    2.0790E+06 -6.1616E+04   2.1406E+06  0.000E+00  0.000E+00  0.000E+00  1.06723E+02  2.733E+00  5.000E+00  5.000E+03 -2.465E+01
   1   23   16     3     8    2.1406E+06 -8.9961E+04   2.2306E+06  0.000E+00  0.000E+00  0.000E+00  1.05836E+02  2.792E+00  5.000E+00  5.000E+03 -3.598E+01





     0  LAKE CELLS ARE DRY.

 PERIOD     1     TIME STEP   117     TIME STEP LENGTH  7.8153E+00
 PERIOD TIME  6.9445E+02     TOTAL SIMULATION TIME  6.9445E+02


                 HYDROLOGIC BUDGET SUMMARIES FOR SIMULATED LAKES
     (ALL FLUID FLUXES ARE VOLUMES ADDED TO THE LAKE DURING PRESENT TIME STEP)
     -------------------------------------------------------------------------
 LAKE    STAGE         VOLUME     VOL.CHANGE      PRECIP     EVAPORATION        RUNOFF
   1   117.0191     8.5118E+07    3.8320E+03    5.6661E+05    5.0311E+05    0.0000E+00
   2   111.9443     5.3401E+07    8.0160E+03    5.6661E+05    5.0311E+05    0.0000E+00

            GROUND WATER            SURFACE WATER        WATER
 LAKE    INFLOW     OUTFLOW      INFLOW     OUTFLOW       USE
   1  2.2589E+06  0.0000E+00  8.1295E+06  1.0448E+07  0.0000E+00
   2  2.4502E+06  0.0000E+00  1.1855E+07  1.4361E+07  0.0000E+00

      CONNECTED LAKE   TIME-STEP         STAGE-CHANGE          PERCENT
 LAKE    INFLUX      SURFACE AREA   TIME STEP  CUMULATIVE    DISCREPANCY
   1   0.0000E+00     6.2500E+06   6.1297E-04 -1.2981E+01       0.000
   2   0.0000E+00     6.2500E+06   1.2826E-03 -1.8056E+01       0.000
 --------------------------------------------------------------------------------



            CUMULATIVE HYDROLOGIC BUDGET SUMMARIES FOR SIMULATED LAKES
     (ALL FLUID FLUXES ARE SUMS OF VOLUMES ADDED TO THE LAKE SINCE INITIAL TIME)
     ---------------------------------------------------------------------------
 LAKE       PRECIP       EVAP       RUNOFF
   1     5.0348E+07  4.4705E+07  0.0000E+00
   2     5.0348E+07  4.4705E+07  0.0000E+00

            GROUND WATER            SURFACE WATER
 LAKE    INFLOW     OUTFLOW      INFLOW     OUTFLOW
   1  1.3019E+08  1.5644E+06  6.5791E+08  8.7331E+08
   2  1.4990E+08  1.4259E+06  9.5873E+08  1.2257E+09

         WATER    CONNECTED LAKE   CHANGE       PERCENT
 LAKE     USE         INFLUX       IN VOL.    DISCREPANCY
   1   0.0000E+00   0.0000E+00  -8.1130E+07      0.000
   2   0.0000E+00   0.0000E+00  -1.1285E+08      0.000
 --------------------------------------------------------------------------------

 
 SOLVING FOR HEAD 
     6 ITERATIONS FOR TIME STEP 118 IN STRESS PERIOD    1

 HEAD/DRAWDOWN PRINTOUT FLAG = 0     TOTAL BUDGET PRINTOUT FLAG = 0
 CELL-BY-CELL FLOW TERM FLAG = 1

 OUTPUT FLAGS FOR ALL LAYERS ARE THE SAME:
   HEAD    DRAWDOWN  HEAD  DRAWDOWN
 PRINTOUT  PRINTOUT  SAVE    SAVE
 ----------------------------------
     0         0       0       0



 STREAM LISTING     PERIOD      1   STEP      118

 LAYER ROW COL. STREAM  RCH.  FLOW INTO     FLOW TO   FLOW OUT OF   OVRLND.     DIRECT     STREAM       STREAM     STREAM     STREAM   STREAMBED  STREAMBED
                SEG.NO.  NO.  STRM. RCH.    AQUIFER    STRM. RCH.    RUNOFF     PRECIP       ET          HEAD       DEPTH      WIDTH   CONDCTNC.   GRADIENT

   1    2    5     1     1    6.9120E+05 -7.9961E+04   7.7116E+05  0.000E+00  0.000E+00  0.000E+00  1.25330E+02  1.382E+00  5.000E+00  5.000E+03 -3.198E+01
   1    3    5     1     2    7.7116E+05 -5.6153E+04   8.2731E+05  0.000E+00  0.000E+00  0.000E+00  1.24302E+02  1.458E+00  5.000E+00  5.000E+03 -2.246E+01
   1    4    5     1     3    8.2731E+05 -5.2911E+04   8.8022E+05  0.000E+00  0.000E+00  0.000E+00  1.23258E+02  1.517E+00  5.000E+00  5.000E+03 -2.116E+01
   1    4    6     1     4    8.8022E+05 -4.3212E+04   9.2344E+05  0.000E+00  0.000E+00  0.000E+00  1.22205E+02  1.567E+00  5.000E+00  5.000E+03 -1.728E+01
   1    4    7     1     5    9.2344E+05 -2.1056E+04   9.4449E+05  0.000E+00  0.000E+00  0.000E+00  1.21411E+02  1.600E+00  5.000E+00  2.500E+03 -1.685E+01
   1    4    8     1     6    9.4449E+05 -3.4598E+04   9.7909E+05  0.000E+00  0.000E+00  0.000E+00  1.20750E+02  1.629E+00  5.000E+00  3.750E+03 -1.845E+01
   1    5    8     1     7    9.7909E+05 -3.6329E+04   1.0154E+06  0.000E+00  0.000E+00  0.000E+00  1.19820E+02  1.665E+00  5.000E+00  5.000E+03 -1.453E+01
   1    6    8     1     8    1.0154E+06 -2.4954E+04   1.0404E+06  0.000E+00  0.000E+00  0.000E+00  1.18747E+02  1.695E+00  5.000E+00  5.000E+03 -9.982E+00
   1   12    9     2     1    1.3375E+06 -2.6494E+04   1.3640E+06  0.000E+00  0.000E+00  0.000E+00  1.16622E+02  2.183E+00  5.000E+00  5.000E+03 -1.060E+01
   1   13    9     2     2    1.3640E+06 -4.1534E+04   1.4055E+06  0.000E+00  0.000E+00  0.000E+00  1.15834E+02  2.215E+00  5.000E+00  5.000E+03 -1.661E+01
   1   14   10     2     3    1.4055E+06 -2.2428E+04   1.4279E+06  0.000E+00  0.000E+00  0.000E+00  1.15225E+02  2.246E+00  5.000E+00  2.795E+03 -1.605E+01
   1   14   10     2     4    1.4279E+06 -2.3649E+04   1.4516E+06  0.000E+00  0.000E+00  0.000E+00  1.14788E+02  2.268E+00  5.000E+00  2.795E+03 -1.692E+01
   1   15   10     2     5    1.4516E+06 -3.9681E+04   1.4913E+06  0.000E+00  0.000E+00  0.000E+00  1.14179E+02  2.298E+00  5.000E+00  5.000E+03 -1.587E+01
   1   16   10     2     6    1.4913E+06 -2.6567E+04   1.5178E+06  0.000E+00  0.000E+00  0.000E+00  1.13389E+02  2.329E+00  5.000E+00  5.000E+03 -1.063E+01
   1   22   10     3     1    1.8390E+06 -2.7385E+04   1.8664E+06  0.000E+00  0.000E+00  0.000E+00  1.11484E+02  2.528E+00  5.000E+00  5.000E+03 -1.095E+01
   1   23   10     3     2    1.8664E+06 -3.9589E+04   1.9060E+06  0.000E+00  0.000E+00  0.000E+00  1.10684E+02  2.556E+00  5.000E+00  3.750E+03 -2.111E+01
   1   23   11     3     3    1.9060E+06 -2.3496E+04   1.9295E+06  0.000E+00  0.000E+00  0.000E+00  1.10118E+02  2.581E+00  5.000E+00  2.500E+03 -1.880E+01
   1   23   12     3     4    1.9295E+06 -4.6669E+04   1.9761E+06  0.000E+00  0.000E+00  0.000E+00  1.09437E+02  2.609E+00  5.000E+00  5.000E+03 -1.867E+01
   1   23   13     3     5    1.9761E+06 -5.0335E+04   2.0265E+06  0.000E+00  0.000E+00  0.000E+00  1.08530E+02  2.648E+00  5.000E+00  5.000E+03 -2.013E+01
   1   23   14     3     6    2.0265E+06 -5.4156E+04   2.0806E+06  0.000E+00  0.000E+00  0.000E+00  1.07625E+02  2.689E+00  5.000E+00  5.000E+03 -2.166E+01
   1   23   15     3     7    2.0806E+06 -6.1630E+04   2.1423E+06  0.000E+00  0.000E+00  0.000E+00  1.06725E+02  2.735E+00  5.000E+00  5.000E+03 -2.465E+01
   1   23   16     3     8    2.1423E+06 -8.9965E+04   2.2322E+06  0.000E+00  0.000E+00  0.000E+00  1.05837E+02  2.793E+00  5.000E+00  5.000E+03 -3.599E+01





     0  LAKE CELLS ARE DRY.

 PERIOD     1     TIME STEP   118     TIME STEP LENGTH  7.8543E+00
 PERIOD TIME  7.0231E+02     TOTAL SIMULATION TIME  7.0231E+02


                 HYDROLOGIC BUDGET SUMMARIES FOR SIMULATED LAKES
     (ALL FLUID FLUXES ARE VOLUMES ADDED TO THE LAKE DURING PRESENT TIME STEP)
     -------------------------------------------------------------------------
 LAKE    STAGE         VOLUME     VOL.CHANGE      PRECIP     EVAPORATION        RUNOFF
   1   117.0196     8.5122E+07    3.6080E+03    5.6944E+05    5.0562E+05    0.0000E+00
   2   111.9456     5.3409E+07    7.6000E+03    5.6944E+05    5.0562E+05    0.0000E+00

            GROUND WATER            SURFACE WATER        WATER
 LAKE    INFLOW     OUTFLOW      INFLOW     OUTFLOW       USE
   1  2.2733E+06  0.0000E+00  8.1714E+06  1.0505E+07  0.0000E+00
   2  2.4663E+06  0.0000E+00  1.1922E+07  1.4444E+07  0.0000E+00

      CONNECTED LAKE   TIME-STEP         STAGE-CHANGE          PERCENT
 LAKE    INFLUX      SURFACE AREA   TIME STEP  CUMULATIVE    DISCREPANCY
   1   0.0000E+00     6.2500E+06   5.7704E-04 -1.2980E+01       0.000
   2   0.0000E+00     6.2500E+06   1.2157E-03 -1.8054E+01       0.000
 --------------------------------------------------------------------------------



            CUMULATIVE HYDROLOGIC BUDGET SUMMARIES FOR SIMULATED LAKES
     (ALL FLUID FLUXES ARE SUMS OF VOLUMES ADDED TO THE LAKE SINCE INITIAL TIME)
     ---------------------------------------------------------------------------
 LAKE       PRECIP       EVAP       RUNOFF
   1     5.0917E+07  4.5211E+07  0.0000E+00
   2     5.0917E+07  4.5211E+07  0.0000E+00

            GROUND WATER            SURFACE WATER
 LAKE    INFLOW     OUTFLOW      INFLOW     OUTFLOW
   1  1.3247E+08  1.5644E+06  6.6608E+08  8.8381E+08
   2  1.5236E+08  1.4259E+06  9.7065E+08  1.2401E+09

         WATER    CONNECTED LAKE   CHANGE       PERCENT
 LAKE     USE         INFLUX       IN VOL.    DISCREPANCY
   1   0.0000E+00   0.0000E+00  -8.1126E+07      0.000
   2   0.0000E+00   0.0000E+00  -1.1284E+08      0.000
 --------------------------------------------------------------------------------

 
 SOLVING FOR HEAD 
     6 ITERATIONS FOR TIME STEP 119 IN STRESS PERIOD    1

 HEAD/DRAWDOWN PRINTOUT FLAG = 0     TOTAL BUDGET PRINTOUT FLAG = 0
 CELL-BY-CELL FLOW TERM FLAG = 1

 OUTPUT FLAGS FOR ALL LAYERS ARE THE SAME:
   HEAD    DRAWDOWN  HEAD  DRAWDOWN
 PRINTOUT  PRINTOUT  SAVE    SAVE
 ----------------------------------
     0         0       0       0



 STREAM LISTING     PERIOD      1   STEP      119

 LAYER ROW COL. STREAM  RCH.  FLOW INTO     FLOW TO   FLOW OUT OF   OVRLND.     DIRECT     STREAM       STREAM     STREAM     STREAM   STREAMBED  STREAMBED
                SEG.NO.  NO.  STRM. RCH.    AQUIFER    STRM. RCH.    RUNOFF     PRECIP       ET          HEAD       DEPTH      WIDTH   CONDCTNC.   GRADIENT

   1    2    5     1     1    6.9120E+05 -7.9965E+04   7.7116E+05  0.000E+00  0.000E+00  0.000E+00  1.25330E+02  1.382E+00  5.000E+00  5.000E+03 -3.199E+01
   1    3    5     1     2    7.7116E+05 -5.6166E+04   8.2733E+05  0.000E+00  0.000E+00  0.000E+00  1.24303E+02  1.458E+00  5.000E+00  5.000E+03 -2.247E+01
   1    4    5     1     3    8.2733E+05 -5.2938E+04   8.8027E+05  0.000E+00  0.000E+00  0.000E+00  1.23258E+02  1.517E+00  5.000E+00  5.000E+03 -2.118E+01
   1    4    6     1     4    8.8027E+05 -4.3237E+04   9.2351E+05  0.000E+00  0.000E+00  0.000E+00  1.22205E+02  1.567E+00  5.000E+00  5.000E+03 -1.729E+01
   1    4    7     1     5    9.2351E+05 -2.1067E+04   9.4457E+05  0.000E+00  0.000E+00  0.000E+00  1.21411E+02  1.601E+00  5.000E+00  2.500E+03 -1.685E+01
   1    4    8     1     6    9.4457E+05 -3.4615E+04   9.7919E+05  0.000E+00  0.000E+00  0.000E+00  1.20750E+02  1.629E+00  5.000E+00  3.750E+03 -1.846E+01
   1    5    8     1     7    9.7919E+05 -3.6359E+04   1.0155E+06  0.000E+00  0.000E+00  0.000E+00  1.19820E+02  1.665E+00  5.000E+00  5.000E+03 -1.454E+01
   1    6    8     1     8    1.0155E+06 -2.4979E+04   1.0405E+06  0.000E+00  0.000E+00  0.000E+00  1.18747E+02  1.695E+00  5.000E+00  5.000E+03 -9.992E+00
   1   12    9     2     1    1.3380E+06 -2.6539E+04   1.3646E+06  0.000E+00  0.000E+00  0.000E+00  1.16623E+02  2.183E+00  5.000E+00  5.000E+03 -1.062E+01
   1   13    9     2     2    1.3646E+06 -4.1615E+04   1.4062E+06  0.000E+00  0.000E+00  0.000E+00  1.15835E+02  2.216E+00  5.000E+00  5.000E+03 -1.665E+01
   1   14   10     2     3    1.4062E+06 -2.2470E+04   1.4287E+06  0.000E+00  0.000E+00  0.000E+00  1.15226E+02  2.247E+00  5.000E+00  2.795E+03 -1.608E+01
   1   14   10     2     4    1.4287E+06 -2.3691E+04   1.4524E+06  0.000E+00  0.000E+00  0.000E+00  1.14789E+02  2.269E+00  5.000E+00  2.795E+03 -1.695E+01
   1   15   10     2     5    1.4524E+06 -3.9755E+04   1.4921E+06  0.000E+00  0.000E+00  0.000E+00  1.14179E+02  2.298E+00  5.000E+00  5.000E+03 -1.590E+01
   1   16   10     2     6    1.4921E+06 -2.6614E+04   1.5187E+06  0.000E+00  0.000E+00  0.000E+00  1.13390E+02  2.329E+00  5.000E+00  5.000E+03 -1.065E+01
   1   22   10     3     1    1.8404E+06 -2.7412E+04   1.8678E+06  0.000E+00  0.000E+00  0.000E+00  1.11485E+02  2.529E+00  5.000E+00  5.000E+03 -1.096E+01
   1   23   10     3     2    1.8678E+06 -3.9620E+04   1.9074E+06  0.000E+00  0.000E+00  0.000E+00  1.10685E+02  2.557E+00  5.000E+00  3.750E+03 -2.113E+01
   1   23   11     3     3    1.9074E+06 -2.3512E+04   1.9309E+06  0.000E+00  0.000E+00  0.000E+00  1.10119E+02  2.582E+00  5.000E+00  2.500E+03 -1.881E+01
   1   23   12     3     4    1.9309E+06 -4.6697E+04   1.9776E+06  0.000E+00  0.000E+00  0.000E+00  1.09438E+02  2.611E+00  5.000E+00  5.000E+03 -1.868E+01
   1   23   13     3     5    1.9776E+06 -5.0361E+04   2.0280E+06  0.000E+00  0.000E+00  0.000E+00  1.08531E+02  2.649E+00  5.000E+00  5.000E+03 -2.014E+01
   1   23   14     3     6    2.0280E+06 -5.4176E+04   2.0822E+06  0.000E+00  0.000E+00  0.000E+00  1.07626E+02  2.691E+00  5.000E+00  5.000E+03 -2.167E+01
   1   23   15     3     7    2.0822E+06 -6.1642E+04   2.1438E+06  0.000E+00  0.000E+00  0.000E+00  1.06726E+02  2.736E+00  5.000E+00  5.000E+03 -2.466E+01
   1   23   16     3     8    2.1438E+06 -8.9968E+04   2.2338E+06  0.000E+00  0.000E+00  0.000E+00  1.05839E+02  2.794E+00  5.000E+00  5.000E+03 -3.599E+01





     0  LAKE CELLS ARE DRY.

 PERIOD     1     TIME STEP   119     TIME STEP LENGTH  7.8936E+00
 PERIOD TIME  7.1020E+02     TOTAL SIMULATION TIME  7.1020E+02


                 HYDROLOGIC BUDGET SUMMARIES FOR SIMULATED LAKES
     (ALL FLUID FLUXES ARE VOLUMES ADDED TO THE LAKE DURING PRESENT TIME STEP)
     -------------------------------------------------------------------------
 LAKE    STAGE         VOLUME     VOL.CHANGE      PRECIP     EVAPORATION        RUNOFF
   1   117.0202     8.5125E+07    3.4080E+03    5.7229E+05    5.0815E+05    0.0000E+00
   2   111.9467     5.3416E+07    7.1960E+03    5.7229E+05    5.0815E+05    0.0000E+00

            GROUND WATER            SURFACE WATER        WATER
 LAKE    INFLOW     OUTFLOW      INFLOW     OUTFLOW       USE
   1  2.2877E+06  0.0000E+00  8.2135E+06  1.0562E+07  0.0000E+00
   2  2.4822E+06  0.0000E+00  1.1988E+07  1.4527E+07  0.0000E+00

      CONNECTED LAKE   TIME-STEP         STAGE-CHANGE          PERCENT
 LAKE    INFLUX      SURFACE AREA   TIME STEP  CUMULATIVE    DISCREPANCY
   1   0.0000E+00     6.2500E+06   5.4579E-04 -1.2980E+01       0.000
   2   0.0000E+00     6.2500E+06   1.1516E-03 -1.8053E+01       0.000
 --------------------------------------------------------------------------------



            CUMULATIVE HYDROLOGIC BUDGET SUMMARIES FOR SIMULATED LAKES
     (ALL FLUID FLUXES ARE SUMS OF VOLUMES ADDED TO THE LAKE SINCE INITIAL TIME)
     ---------------------------------------------------------------------------
 LAKE       PRECIP       EVAP       RUNOFF
   1     5.1489E+07  4.5719E+07  0.0000E+00
   2     5.1489E+07  4.5719E+07  0.0000E+00

            GROUND WATER            SURFACE WATER
 LAKE    INFLOW     OUTFLOW      INFLOW     OUTFLOW
   1  1.3475E+08  1.5644E+06  6.7429E+08  8.9437E+08
   2  1.5485E+08  1.4259E+06  9.8264E+08  1.2547E+09

         WATER    CONNECTED LAKE   CHANGE       PERCENT
 LAKE     USE         INFLUX       IN VOL.    DISCREPANCY
   1   0.0000E+00   0.0000E+00  -8.1123E+07      0.000
   2   0.0000E+00   0.0000E+00  -1.1283E+08      0.000
 --------------------------------------------------------------------------------

 
 SOLVING FOR HEAD 
     5 ITERATIONS FOR TIME STEP 120 IN STRESS PERIOD    1

 HEAD/DRAWDOWN PRINTOUT FLAG = 1     TOTAL BUDGET PRINTOUT FLAG = 1
 CELL-BY-CELL FLOW TERM FLAG = 1

 OUTPUT FLAGS FOR EACH LAYER:
          HEAD    DRAWDOWN  HEAD  DRAWDOWN
 LAYER  PRINTOUT  PRINTOUT  SAVE    SAVE
 -----------------------------------------
    1       0         0       0       0
    2       0         0       0       0
    3       0         0       0       0
    4       0         0       0       0
    5       1         0       0       0



 STREAM LISTING     PERIOD      1   STEP      120

 LAYER ROW COL. STREAM  RCH.  FLOW INTO     FLOW TO   FLOW OUT OF   OVRLND.     DIRECT     STREAM       STREAM     STREAM     STREAM   STREAMBED  STREAMBED
                SEG.NO.  NO.  STRM. RCH.    AQUIFER    STRM. RCH.    RUNOFF     PRECIP       ET          HEAD       DEPTH      WIDTH   CONDCTNC.   GRADIENT

   1    2    5     1     1    6.9120E+05 -7.9969E+04   7.7117E+05  0.000E+00  0.000E+00  0.000E+00  1.25330E+02  1.382E+00  5.000E+00  5.000E+03 -3.199E+01
   1    3    5     1     2    7.7117E+05 -5.6178E+04   8.2735E+05  0.000E+00  0.000E+00  0.000E+00  1.24303E+02  1.458E+00  5.000E+00  5.000E+03 -2.247E+01
   1    4    5     1     3    8.2735E+05 -5.2964E+04   8.8031E+05  0.000E+00  0.000E+00  0.000E+00  1.23258E+02  1.517E+00  5.000E+00  5.000E+03 -2.119E+01
   1    4    6     1     4    8.8031E+05 -4.3260E+04   9.2357E+05  0.000E+00  0.000E+00  0.000E+00  1.22205E+02  1.567E+00  5.000E+00  5.000E+03 -1.730E+01
   1    4    7     1     5    9.2357E+05 -2.1078E+04   9.4465E+05  0.000E+00  0.000E+00  0.000E+00  1.21411E+02  1.601E+00  5.000E+00  2.500E+03 -1.686E+01
   1    4    8     1     6    9.4465E+05 -3.4630E+04   9.7928E+05  0.000E+00  0.000E+00  0.000E+00  1.20750E+02  1.629E+00  5.000E+00  3.750E+03 -1.847E+01
   1    5    8     1     7    9.7928E+05 -3.6388E+04   1.0157E+06  0.000E+00  0.000E+00  0.000E+00  1.19820E+02  1.665E+00  5.000E+00  5.000E+03 -1.456E+01
   1    6    8     1     8    1.0157E+06 -2.5003E+04   1.0407E+06  0.000E+00  0.000E+00  0.000E+00  1.18747E+02  1.695E+00  5.000E+00  5.000E+03 -1.000E+01
   1   12    9     2     1    1.3386E+06 -2.6581E+04   1.3651E+06  0.000E+00  0.000E+00  0.000E+00  1.16623E+02  2.184E+00  5.000E+00  5.000E+03 -1.063E+01
   1   13    9     2     2    1.3651E+06 -4.1691E+04   1.4068E+06  0.000E+00  0.000E+00  0.000E+00  1.15836E+02  2.217E+00  5.000E+00  5.000E+03 -1.668E+01
   1   14   10     2     3    1.4068E+06 -2.2511E+04   1.4294E+06  0.000E+00  0.000E+00  0.000E+00  1.15227E+02  2.247E+00  5.000E+00  2.795E+03 -1.611E+01
   1   14   10     2     4    1.4294E+06 -2.3732E+04   1.4531E+06  0.000E+00  0.000E+00  0.000E+00  1.14790E+02  2.269E+00  5.000E+00  2.795E+03 -1.698E+01
   1   15   10     2     5    1.4531E+06 -3.9825E+04   1.4929E+06  0.000E+00  0.000E+00  0.000E+00  1.14180E+02  2.299E+00  5.000E+00  5.000E+03 -1.593E+01
   1   16   10     2     6    1.4929E+06 -2.6658E+04   1.5196E+06  0.000E+00  0.000E+00  0.000E+00  1.13390E+02  2.330E+00  5.000E+00  5.000E+03 -1.066E+01
   1   22   10     3     1    1.8417E+06 -2.7437E+04   1.8692E+06  0.000E+00  0.000E+00  0.000E+00  1.11486E+02  2.530E+00  5.000E+00  5.000E+03 -1.097E+01
   1   23   10     3     2    1.8692E+06 -3.9649E+04   1.9088E+06  0.000E+00  0.000E+00  0.000E+00  1.10686E+02  2.558E+00  5.000E+00  3.750E+03 -2.115E+01
   1   23   11     3     3    1.9088E+06 -2.3527E+04   1.9323E+06  0.000E+00  0.000E+00  0.000E+00  1.10120E+02  2.583E+00  5.000E+00  2.500E+03 -1.882E+01
   1   23   12     3     4    1.9323E+06 -4.6723E+04   1.9791E+06  0.000E+00  0.000E+00  0.000E+00  1.09439E+02  2.612E+00  5.000E+00  5.000E+03 -1.869E+01
   1   23   13     3     5    1.9791E+06 -5.0386E+04   2.0294E+06  0.000E+00  0.000E+00  0.000E+00  1.08532E+02  2.650E+00  5.000E+00  5.000E+03 -2.015E+01
   1   23   14     3     6    2.0294E+06 -5.4195E+04   2.0836E+06  0.000E+00  0.000E+00  0.000E+00  1.07628E+02  2.692E+00  5.000E+00  5.000E+03 -2.168E+01
   1   23   15     3     7    2.0836E+06 -6.1655E+04   2.1453E+06  0.000E+00  0.000E+00  0.000E+00  1.06727E+02  2.737E+00  5.000E+00  5.000E+03 -2.466E+01
   1   23   16     3     8    2.1453E+06 -8.9972E+04   2.2353E+06  0.000E+00  0.000E+00  0.000E+00  1.05840E+02  2.795E+00  5.000E+00  5.000E+03 -3.599E+01





     0  LAKE CELLS ARE DRY.

 PERIOD     1     TIME STEP   120     TIME STEP LENGTH  7.9331E+00
 PERIOD TIME  7.1813E+02     TOTAL SIMULATION TIME  7.1813E+02


                 HYDROLOGIC BUDGET SUMMARIES FOR SIMULATED LAKES
     (ALL FLUID FLUXES ARE VOLUMES ADDED TO THE LAKE DURING PRESENT TIME STEP)
     -------------------------------------------------------------------------
 LAKE    STAGE         VOLUME     VOL.CHANGE      PRECIP     EVAPORATION        RUNOFF
   1   117.0207     8.5129E+07    3.3040E+03    5.7515E+05    5.1069E+05    0.0000E+00
   2   111.9478     5.3423E+07    6.9800E+03    5.7515E+05    5.1069E+05    0.0000E+00

            GROUND WATER            SURFACE WATER        WATER
 LAKE    INFLOW     OUTFLOW      INFLOW     OUTFLOW       USE
   1  2.3021E+06  0.0000E+00  8.2557E+06  1.0619E+07  0.0000E+00
   2  2.4981E+06  0.0000E+00  1.2055E+07  1.4610E+07  0.0000E+00

      CONNECTED LAKE   TIME-STEP         STAGE-CHANGE          PERCENT
 LAKE    INFLUX      SURFACE AREA   TIME STEP  CUMULATIVE    DISCREPANCY
   1   0.0000E+00     6.2500E+06   5.2825E-04 -1.2979E+01       0.000
   2   0.0000E+00     6.2500E+06   1.1169E-03 -1.8052E+01       0.000
 --------------------------------------------------------------------------------



            CUMULATIVE HYDROLOGIC BUDGET SUMMARIES FOR SIMULATED LAKES
     (ALL FLUID FLUXES ARE SUMS OF VOLUMES ADDED TO THE LAKE SINCE INITIAL TIME)
     ---------------------------------------------------------------------------
 LAKE       PRECIP       EVAP       RUNOFF
   1     5.2065E+07  4.6230E+07  0.0000E+00
   2     5.2065E+07  4.6230E+07  0.0000E+00

            GROUND WATER            SURFACE WATER
 LAKE    INFLOW     OUTFLOW      INFLOW     OUTFLOW
   1  1.3705E+08  1.5644E+06  6.8255E+08  9.0499E+08
   2  1.5734E+08  1.4259E+06  9.9469E+08  1.2693E+09

         WATER    CONNECTED LAKE   CHANGE       PERCENT
 LAKE     USE         INFLUX       IN VOL.    DISCREPANCY
   1   0.0000E+00   0.0000E+00  -8.1120E+07      0.000
   2   0.0000E+00   0.0000E+00  -1.1283E+08      0.000
 --------------------------------------------------------------------------------

1
              HEAD IN LAYER   5 AT END OF TIME STEP 120 IN STRESS PERIOD    1
  ---------------------------------------------------------------------------

          1      2      3      4      5      6      7      8      9     10
 .........................................................................
   1   160.0  158.9  157.3  155.8  154.2  152.7  151.5  150.8  150.0  149.2
   2   160.0  158.2  155.3  151.1  141.4  146.7  147.2  147.1  146.9  146.6
   3   160.0  157.5  153.5  147.6  135.6  139.9  140.7  141.2  142.1  142.7
   4   160.0  157.3  152.9  146.6  133.9  130.9  129.9  130.0  135.3  138.1
   5   160.0  157.3  153.1  148.2  141.6  136.0  131.1  127.1  131.4  134.3
   6   160.0  157.4  153.4  149.0  143.4  136.0  128.3  123.8  126.0  128.0
   7   160.0  157.4  153.5  149.2  143.4  133.3  117.9  117.3  117.3  117.4
   8   160.0  157.4  153.6  149.3  143.4  132.6  117.5  117.0  117.0  117.0
   9   160.0  157.4  153.7  149.4  143.5  132.5  117.5  117.0  117.0  117.0
  10   160.0  157.5  153.7  149.6  143.8  133.0  117.5  117.0  117.0  117.0
  11   160.0  157.5  153.8  149.8  144.3  134.3  118.0  117.3  117.2  117.3
  12   160.0  157.5  154.0  150.2  145.4  138.2  130.5  126.2  122.0  124.8
  13   160.0  157.6  154.1  150.6  146.4  140.9  135.3  130.5  124.2  127.5
  14   160.0  157.6  154.2  150.7  146.7  141.8  137.0  133.1  128.5  123.3
  15   160.0  157.6  154.1  150.5  146.2  140.7  135.5  131.7  127.4  122.2
  16   160.0  157.5  153.9  150.0  144.9  137.2  129.0  125.1  122.0  118.7
  17   160.0  157.5  153.8  149.7  143.7  132.3  113.1  112.4  112.3  112.2
  18   160.0  157.5  153.8  149.5  143.2  130.7  112.6  112.0  112.0  112.0
  19   160.0  157.5  153.8  149.5  143.1  130.4  112.5  112.0  111.9  112.0
  20   160.0  157.5  153.9  149.7  143.4  131.0  112.6  112.0  112.0  112.0
  21   160.0  157.6  154.0  150.0  144.1  132.8  113.1  112.4  112.3  112.1
  22   160.0  157.6  154.3  150.6  145.8  138.3  130.1  125.9  121.9  117.0
  23   160.0  157.8  154.7  151.6  148.0  143.2  138.6  134.8  129.6  121.3
  24   160.0  158.0  155.2  152.6  149.8  146.5  143.7  141.6  139.3  137.1
  25   160.0  158.2  155.8  153.6  151.3  148.9  147.0  145.7  144.4  143.2
  26   160.0  158.5  156.5  154.7  152.9  151.1  149.7  148.8  147.9  146.9
  27   160.0  158.9  157.3  155.8  154.2  152.7  151.5  150.8  150.0  149.2
1
              HEAD IN LAYER   5 AT END OF TIME STEP 120 IN STRESS PERIOD    1
  ---------------------------------------------------------------------------

         11     12     13     14     15     16     17
 ....................................................
   1   148.5  147.3  145.8  144.2  142.7  141.1  140.0
   2   146.2  145.5  144.3  143.0  141.7  140.5  140.0
   3   143.0  143.2  142.7  141.8  140.9  140.1  140.0
   4   139.6  140.9  141.2  140.9  140.3  139.9  140.0
   5   136.3  138.5  139.8  140.1  139.9  139.7  140.0
   6   130.3  135.0  138.2  139.3  139.5  139.6  140.0
   7   117.9  131.1  136.9  138.8  139.3  139.5  140.0
   8   117.4  129.8  136.3  138.5  139.2  139.5  140.0
   9   117.4  129.3  136.1  138.4  139.1  139.5  140.0
  10   117.4  129.4  136.1  138.4  139.1  139.5  140.0
  11   117.7  130.3  136.3  138.4  139.1  139.5  140.0
  12   127.7  133.1  137.0  138.6  139.1  139.5  140.0
  13   130.6  134.7  137.5  138.7  139.1  139.5  140.0
  14   128.9  134.3  137.4  138.6  139.1  139.4  140.0
  15   127.4  133.2  136.8  138.3  138.9  139.4  140.0
  16   123.3  130.4  135.5  137.7  138.6  139.2  140.0
  17   112.7  126.8  134.2  136.9  138.1  139.0  140.0
  18   112.4  125.4  133.4  136.4  137.7  138.8  140.0
  19   112.3  124.6  132.6  135.6  137.1  138.5  140.0
  20   112.3  124.1  131.7  134.6  136.2  138.0  140.0
  21   112.5  123.8  130.5  133.2  134.8  137.2  140.0
  22   119.6  123.9  127.8  129.8  131.3  134.8  140.0
  23   119.6  118.8  118.6  118.5  119.1  123.9  140.0
  24   135.6  134.0  132.8  132.2  132.5  135.1  140.0
  25   142.1  140.7  139.3  138.2  137.8  138.5  140.0
  26   146.1  144.8  143.3  142.0  140.8  140.1  140.0
  27   148.5  147.3  145.8  144.2  142.7  141.1  140.0
1
  VOLUMETRIC BUDGET FOR ENTIRE MODEL AT END OF TIME STEP120 IN STRESS PERIOD   1
  ------------------------------------------------------------------------------

     CUMULATIVE VOLUMES      L**3       RATES FOR THIS TIME STEP      L**3/T
     ------------------                 ------------------------

           IN:                                      IN:
           ---                                      ---
             STORAGE =     2934567.7500               STORAGE =           0.0000
       CONSTANT HEAD =   883126016.0000         CONSTANT HEAD =      554697.5000
                  ET =           0.0000                    ET =           0.0000
            RECHARGE =  1978453632.0000              RECHARGE =     2755000.0000
     SPECIFIED FLOWS =           0.0000       SPECIFIED FLOWS =           0.0000
      STREAM LEAKAGE =     3694574.2500        STREAM LEAKAGE =           0.0000
       LAKE  SEEPAGE =     2990331.7500         LAKE  SEEPAGE =           0.0000

            TOTAL IN =  2871199232.0000              TOTAL IN =     3309697.5000

          OUT:                                     OUT:
          ----                                     ----
             STORAGE =  1261894528.0000               STORAGE =       75041.2109
       CONSTANT HEAD =      814090.6875         CONSTANT HEAD =        2589.5920
                  ET =   793920896.0000                    ET =     1702940.7500
            RECHARGE =           0.0000              RECHARGE =           0.0000
     SPECIFIED FLOWS =           0.0000       SPECIFIED FLOWS =           0.0000
      STREAM LEAKAGE =   520165152.0000        STREAM LEAKAGE =      924012.1875
       LAKE  SEEPAGE =   294399616.0000         LAKE  SEEPAGE =      605092.9375

           TOTAL OUT =  2871194368.0000             TOTAL OUT =     3309676.7500

            IN - OUT =        4864.0000              IN - OUT =          20.7500

 PERCENT DISCREPANCY =           0.00     PERCENT DISCREPANCY =           0.00






          TIME SUMMARY AT END OF TIME STEP 120 IN STRESS PERIOD    1
                    SECONDS     MINUTES      HOURS       DAYS        YEARS
                    -----------------------------------------------------------
   TIME STEP LENGTH 6.85417E+05  11424.      190.39      7.9331     2.17196E-02
 STRESS PERIOD TIME 6.20466E+07 1.03411E+06  17235.      718.13      1.9661    
         TOTAL TIME 6.20466E+07 1.03411E+06  17235.      718.13      1.9661    
1
 
 SOLVING FOR HEAD 
     5 ITERATIONS FOR TIME STEP 121 IN STRESS PERIOD    1

 HEAD/DRAWDOWN PRINTOUT FLAG = 0     TOTAL BUDGET PRINTOUT FLAG = 0
 CELL-BY-CELL FLOW TERM FLAG = 1

 OUTPUT FLAGS FOR ALL LAYERS ARE THE SAME:
   HEAD    DRAWDOWN  HEAD  DRAWDOWN
 PRINTOUT  PRINTOUT  SAVE    SAVE
 ----------------------------------
     0         0       0       0



 STREAM LISTING     PERIOD      1   STEP      121

 LAYER ROW COL. STREAM  RCH.  FLOW INTO     FLOW TO   FLOW OUT OF   OVRLND.     DIRECT     STREAM       STREAM     STREAM     STREAM   STREAMBED  STREAMBED
                SEG.NO.  NO.  STRM. RCH.    AQUIFER    STRM. RCH.    RUNOFF     PRECIP       ET          HEAD       DEPTH      WIDTH   CONDCTNC.   GRADIENT

   1    2    5     1     1    6.9120E+05 -7.9973E+04   7.7117E+05  0.000E+00  0.000E+00  0.000E+00  1.25330E+02  1.382E+00  5.000E+00  5.000E+03 -3.199E+01
   1    3    5     1     2    7.7117E+05 -5.6189E+04   8.2736E+05  0.000E+00  0.000E+00  0.000E+00  1.24303E+02  1.458E+00  5.000E+00  5.000E+03 -2.248E+01
   1    4    5     1     3    8.2736E+05 -5.2988E+04   8.8035E+05  0.000E+00  0.000E+00  0.000E+00  1.23258E+02  1.517E+00  5.000E+00  5.000E+03 -2.120E+01
   1    4    6     1     4    8.8035E+05 -4.3282E+04   9.2363E+05  0.000E+00  0.000E+00  0.000E+00  1.22205E+02  1.567E+00  5.000E+00  5.000E+03 -1.731E+01
   1    4    7     1     5    9.2363E+05 -2.1088E+04   9.4472E+05  0.000E+00  0.000E+00  0.000E+00  1.21411E+02  1.601E+00  5.000E+00  2.500E+03 -1.687E+01
   1    4    8     1     6    9.4472E+05 -3.4645E+04   9.7937E+05  0.000E+00  0.000E+00  0.000E+00  1.20750E+02  1.629E+00  5.000E+00  3.750E+03 -1.848E+01
   1    5    8     1     7    9.7937E+05 -3.6415E+04   1.0158E+06  0.000E+00  0.000E+00  0.000E+00  1.19820E+02  1.665E+00  5.000E+00  5.000E+03 -1.457E+01
   1    6    8     1     8    1.0158E+06 -2.5025E+04   1.0408E+06  0.000E+00  0.000E+00  0.000E+00  1.18747E+02  1.696E+00  5.000E+00  5.000E+03 -1.001E+01
   1   12    9     2     1    1.3391E+06 -2.6620E+04   1.3657E+06  0.000E+00  0.000E+00  0.000E+00  1.16624E+02  2.184E+00  5.000E+00  5.000E+03 -1.065E+01
   1   13    9     2     2    1.3657E+06 -4.1763E+04   1.4075E+06  0.000E+00  0.000E+00  0.000E+00  1.15836E+02  2.217E+00  5.000E+00  5.000E+03 -1.671E+01
   1   14   10     2     3    1.4075E+06 -2.2549E+04   1.4300E+06  0.000E+00  0.000E+00  0.000E+00  1.15227E+02  2.248E+00  5.000E+00  2.795E+03 -1.614E+01
   1   14   10     2     4    1.4300E+06 -2.3770E+04   1.4538E+06  0.000E+00  0.000E+00  0.000E+00  1.14790E+02  2.270E+00  5.000E+00  2.795E+03 -1.701E+01
   1   15   10     2     5    1.4538E+06 -3.9892E+04   1.4937E+06  0.000E+00  0.000E+00  0.000E+00  1.14181E+02  2.300E+00  5.000E+00  5.000E+03 -1.596E+01
   1   16   10     2     6    1.4937E+06 -2.6700E+04   1.5204E+06  0.000E+00  0.000E+00  0.000E+00  1.13391E+02  2.331E+00  5.000E+00  5.000E+03 -1.068E+01
   1   22   10     3     1    1.8430E+06 -2.7461E+04   1.8705E+06  0.000E+00  0.000E+00  0.000E+00  1.11487E+02  2.532E+00  5.000E+00  5.000E+03 -1.098E+01
   1   23   10     3     2    1.8705E+06 -3.9676E+04   1.9101E+06  0.000E+00  0.000E+00  0.000E+00  1.10687E+02  2.559E+00  5.000E+00  3.750E+03 -2.116E+01
   1   23   11     3     3    1.9101E+06 -2.3542E+04   1.9337E+06  0.000E+00  0.000E+00  0.000E+00  1.10121E+02  2.584E+00  5.000E+00  2.500E+03 -1.883E+01
   1   23   12     3     4    1.9337E+06 -4.6748E+04   1.9804E+06  0.000E+00  0.000E+00  0.000E+00  1.09440E+02  2.613E+00  5.000E+00  5.000E+03 -1.870E+01
   1   23   13     3     5    1.9804E+06 -5.0410E+04   2.0308E+06  0.000E+00  0.000E+00  0.000E+00  1.08533E+02  2.651E+00  5.000E+00  5.000E+03 -2.016E+01
   1   23   14     3     6    2.0308E+06 -5.4213E+04   2.0850E+06  0.000E+00  0.000E+00  0.000E+00  1.07629E+02  2.693E+00  5.000E+00  5.000E+03 -2.169E+01
   1   23   15     3     7    2.0850E+06 -6.1666E+04   2.1467E+06  0.000E+00  0.000E+00  0.000E+00  1.06728E+02  2.738E+00  5.000E+00  5.000E+03 -2.467E+01
   1   23   16     3     8    2.1467E+06 -8.9975E+04   2.2367E+06  0.000E+00  0.000E+00  0.000E+00  1.05841E+02  2.796E+00  5.000E+00  5.000E+03 -3.599E+01





     0  LAKE CELLS ARE DRY.

 PERIOD     1     TIME STEP   121     TIME STEP LENGTH  7.9727E+00
 PERIOD TIME  7.2610E+02     TOTAL SIMULATION TIME  7.2610E+02


                 HYDROLOGIC BUDGET SUMMARIES FOR SIMULATED LAKES
     (ALL FLUID FLUXES ARE VOLUMES ADDED TO THE LAKE DURING PRESENT TIME STEP)
     -------------------------------------------------------------------------
 LAKE    STAGE         VOLUME     VOL.CHANGE      PRECIP     EVAPORATION        RUNOFF
   1   117.0212     8.5132E+07    3.0720E+03    5.7802E+05    5.1324E+05    0.0000E+00
   2   111.9489     5.3430E+07    6.5480E+03    5.7802E+05    5.1324E+05    0.0000E+00

            GROUND WATER            SURFACE WATER        WATER
 LAKE    INFLOW     OUTFLOW      INFLOW     OUTFLOW       USE
   1  2.3163E+06  0.0000E+00  8.2981E+06  1.0676E+07  0.0000E+00
   2  2.5139E+06  0.0000E+00  1.2122E+07  1.4694E+07  0.0000E+00

      CONNECTED LAKE   TIME-STEP         STAGE-CHANGE          PERCENT
 LAKE    INFLUX      SURFACE AREA   TIME STEP  CUMULATIVE    DISCREPANCY
   1   0.0000E+00     6.2500E+06   4.9190E-04 -1.2979E+01       0.000
   2   0.0000E+00     6.2500E+06   1.0474E-03 -1.8051E+01       0.000
 --------------------------------------------------------------------------------



            CUMULATIVE HYDROLOGIC BUDGET SUMMARIES FOR SIMULATED LAKES
     (ALL FLUID FLUXES ARE SUMS OF VOLUMES ADDED TO THE LAKE SINCE INITIAL TIME)
     ---------------------------------------------------------------------------
 LAKE       PRECIP       EVAP       RUNOFF
   1     5.2643E+07  4.6743E+07  0.0000E+00
   2     5.2643E+07  4.6743E+07  0.0000E+00

            GROUND WATER            SURFACE WATER
 LAKE    INFLOW     OUTFLOW      INFLOW     OUTFLOW
   1  1.3937E+08  1.5644E+06  6.9084E+08  9.1567E+08
   2  1.5986E+08  1.4259E+06  1.0068E+09  1.2840E+09

         WATER    CONNECTED LAKE   CHANGE       PERCENT
 LAKE     USE         INFLUX       IN VOL.    DISCREPANCY
   1   0.0000E+00   0.0000E+00  -8.1117E+07      0.000
   2   0.0000E+00   0.0000E+00  -1.1282E+08      0.000
 --------------------------------------------------------------------------------

 
 SOLVING FOR HEAD 
     6 ITERATIONS FOR TIME STEP 122 IN STRESS PERIOD    1

 HEAD/DRAWDOWN PRINTOUT FLAG = 0     TOTAL BUDGET PRINTOUT FLAG = 0
 CELL-BY-CELL FLOW TERM FLAG = 1

 OUTPUT FLAGS FOR ALL LAYERS ARE THE SAME:
   HEAD    DRAWDOWN  HEAD  DRAWDOWN
 PRINTOUT  PRINTOUT  SAVE    SAVE
 ----------------------------------
     0         0       0       0



 STREAM LISTING     PERIOD      1   STEP      122

 LAYER ROW COL. STREAM  RCH.  FLOW INTO     FLOW TO   FLOW OUT OF   OVRLND.     DIRECT     STREAM       STREAM     STREAM     STREAM   STREAMBED  STREAMBED
                SEG.NO.  NO.  STRM. RCH.    AQUIFER    STRM. RCH.    RUNOFF     PRECIP       ET          HEAD       DEPTH      WIDTH   CONDCTNC.   GRADIENT

   1    2    5     1     1    6.9120E+05 -7.9976E+04   7.7118E+05  0.000E+00  0.000E+00  0.000E+00  1.25330E+02  1.382E+00  5.000E+00  5.000E+03 -3.199E+01
   1    3    5     1     2    7.7118E+05 -5.6200E+04   8.2738E+05  0.000E+00  0.000E+00  0.000E+00  1.24303E+02  1.458E+00  5.000E+00  5.000E+03 -2.248E+01
   1    4    5     1     3    8.2738E+05 -5.3011E+04   8.8039E+05  0.000E+00  0.000E+00  0.000E+00  1.23258E+02  1.517E+00  5.000E+00  5.000E+03 -2.120E+01
   1    4    6     1     4    8.8039E+05 -4.3303E+04   9.2369E+05  0.000E+00  0.000E+00  0.000E+00  1.22205E+02  1.567E+00  5.000E+00  5.000E+03 -1.732E+01
   1    4    7     1     5    9.2369E+05 -2.1097E+04   9.4479E+05  0.000E+00  0.000E+00  0.000E+00  1.21411E+02  1.601E+00  5.000E+00  2.500E+03 -1.688E+01
   1    4    8     1     6    9.4479E+05 -3.4659E+04   9.7945E+05  0.000E+00  0.000E+00  0.000E+00  1.20750E+02  1.629E+00  5.000E+00  3.750E+03 -1.849E+01
   1    5    8     1     7    9.7945E+05 -3.6440E+04   1.0159E+06  0.000E+00  0.000E+00  0.000E+00  1.19820E+02  1.665E+00  5.000E+00  5.000E+03 -1.458E+01
   1    6    8     1     8    1.0159E+06 -2.5046E+04   1.0409E+06  0.000E+00  0.000E+00  0.000E+00  1.18747E+02  1.696E+00  5.000E+00  5.000E+03 -1.002E+01
   1   12    9     2     1    1.3396E+06 -2.6658E+04   1.3662E+06  0.000E+00  0.000E+00  0.000E+00  1.16624E+02  2.185E+00  5.000E+00  5.000E+03 -1.066E+01
   1   13    9     2     2    1.3662E+06 -4.1832E+04   1.4081E+06  0.000E+00  0.000E+00  0.000E+00  1.15837E+02  2.218E+00  5.000E+00  5.000E+03 -1.673E+01
   1   14   10     2     3    1.4081E+06 -2.2586E+04   1.4306E+06  0.000E+00  0.000E+00  0.000E+00  1.15228E+02  2.248E+00  5.000E+00  2.795E+03 -1.616E+01
   1   14   10     2     4    1.4306E+06 -2.3807E+04   1.4544E+06  0.000E+00  0.000E+00  0.000E+00  1.14791E+02  2.270E+00  5.000E+00  2.795E+03 -1.704E+01
   1   15   10     2     5    1.4544E+06 -3.9956E+04   1.4944E+06  0.000E+00  0.000E+00  0.000E+00  1.14181E+02  2.300E+00  5.000E+00  5.000E+03 -1.598E+01
   1   16   10     2     6    1.4944E+06 -2.6740E+04   1.5211E+06  0.000E+00  0.000E+00  0.000E+00  1.13392E+02  2.332E+00  5.000E+00  5.000E+03 -1.070E+01
   1   22   10     3     1    1.8442E+06 -2.7484E+04   1.8717E+06  0.000E+00  0.000E+00  0.000E+00  1.11488E+02  2.533E+00  5.000E+00  5.000E+03 -1.099E+01
   1   23   10     3     2    1.8717E+06 -3.9702E+04   1.9114E+06  0.000E+00  0.000E+00  0.000E+00  1.10688E+02  2.560E+00  5.000E+00  3.750E+03 -2.117E+01
   1   23   11     3     3    1.9114E+06 -2.3555E+04   1.9350E+06  0.000E+00  0.000E+00  0.000E+00  1.10122E+02  2.586E+00  5.000E+00  2.500E+03 -1.884E+01
   1   23   12     3     4    1.9350E+06 -4.6772E+04   1.9817E+06  0.000E+00  0.000E+00  0.000E+00  1.09441E+02  2.614E+00  5.000E+00  5.000E+03 -1.871E+01
   1   23   13     3     5    1.9817E+06 -5.0432E+04   2.0322E+06  0.000E+00  0.000E+00  0.000E+00  1.08534E+02  2.653E+00  5.000E+00  5.000E+03 -2.017E+01
   1   23   14     3     6    2.0322E+06 -5.4231E+04   2.0864E+06  0.000E+00  0.000E+00  0.000E+00  1.07630E+02  2.694E+00  5.000E+00  5.000E+03 -2.169E+01
   1   23   15     3     7    2.0864E+06 -6.1677E+04   2.1481E+06  0.000E+00  0.000E+00  0.000E+00  1.06729E+02  2.739E+00  5.000E+00  5.000E+03 -2.467E+01
   1   23   16     3     8    2.1481E+06 -8.9978E+04   2.2381E+06  0.000E+00  0.000E+00  0.000E+00  1.05842E+02  2.797E+00  5.000E+00  5.000E+03 -3.599E+01





     0  LAKE CELLS ARE DRY.

 PERIOD     1     TIME STEP   122     TIME STEP LENGTH  8.0126E+00
 PERIOD TIME  7.3412E+02     TOTAL SIMULATION TIME  7.3412E+02


                 HYDROLOGIC BUDGET SUMMARIES FOR SIMULATED LAKES
     (ALL FLUID FLUXES ARE VOLUMES ADDED TO THE LAKE DURING PRESENT TIME STEP)
     -------------------------------------------------------------------------
 LAKE    STAGE         VOLUME     VOL.CHANGE      PRECIP     EVAPORATION        RUNOFF
   1   117.0217     8.5135E+07    2.8560E+03    5.8091E+05    5.1581E+05    0.0000E+00
   2   111.9498     5.3436E+07    6.0520E+03    5.8091E+05    5.1581E+05    0.0000E+00

            GROUND WATER            SURFACE WATER        WATER
 LAKE    INFLOW     OUTFLOW      INFLOW     OUTFLOW       USE
   1  2.3305E+06  0.0000E+00  8.3406E+06  1.0733E+07  0.0000E+00
   2  2.5297E+06  0.0000E+00  1.2188E+07  1.4777E+07  0.0000E+00

      CONNECTED LAKE   TIME-STEP         STAGE-CHANGE          PERCENT
 LAKE    INFLUX      SURFACE AREA   TIME STEP  CUMULATIVE    DISCREPANCY
   1   0.0000E+00     6.2500E+06   4.5646E-04 -1.2978E+01       0.000
   2   0.0000E+00     6.2500E+06   9.6870E-04 -1.8050E+01       0.000
 --------------------------------------------------------------------------------



            CUMULATIVE HYDROLOGIC BUDGET SUMMARIES FOR SIMULATED LAKES
     (ALL FLUID FLUXES ARE SUMS OF VOLUMES ADDED TO THE LAKE SINCE INITIAL TIME)
     ---------------------------------------------------------------------------
 LAKE       PRECIP       EVAP       RUNOFF
   1     5.3224E+07  4.7259E+07  0.0000E+00
   2     5.3224E+07  4.7259E+07  0.0000E+00

            GROUND WATER            SURFACE WATER
 LAKE    INFLOW     OUTFLOW      INFLOW     OUTFLOW
   1  1.4170E+08  1.5644E+06  6.9918E+08  9.2640E+08
   2  1.6239E+08  1.4259E+06  1.0190E+09  1.2987E+09

         WATER    CONNECTED LAKE   CHANGE       PERCENT
 LAKE     USE         INFLUX       IN VOL.    DISCREPANCY
   1   0.0000E+00   0.0000E+00  -8.1114E+07      0.000
   2   0.0000E+00   0.0000E+00  -1.1281E+08      0.000
 --------------------------------------------------------------------------------

 
 SOLVING FOR HEAD 
     5 ITERATIONS FOR TIME STEP 123 IN STRESS PERIOD    1

 HEAD/DRAWDOWN PRINTOUT FLAG = 0     TOTAL BUDGET PRINTOUT FLAG = 0
 CELL-BY-CELL FLOW TERM FLAG = 1

 OUTPUT FLAGS FOR ALL LAYERS ARE THE SAME:
   HEAD    DRAWDOWN  HEAD  DRAWDOWN
 PRINTOUT  PRINTOUT  SAVE    SAVE
 ----------------------------------
     0         0       0       0



 STREAM LISTING     PERIOD      1   STEP      123

 LAYER ROW COL. STREAM  RCH.  FLOW INTO     FLOW TO   FLOW OUT OF   OVRLND.     DIRECT     STREAM       STREAM     STREAM     STREAM   STREAMBED  STREAMBED
                SEG.NO.  NO.  STRM. RCH.    AQUIFER    STRM. RCH.    RUNOFF     PRECIP       ET          HEAD       DEPTH      WIDTH   CONDCTNC.   GRADIENT

   1    2    5     1     1    6.9120E+05 -7.9980E+04   7.7118E+05  0.000E+00  0.000E+00  0.000E+00  1.25330E+02  1.382E+00  5.000E+00  5.000E+03 -3.199E+01
   1    3    5     1     2    7.7118E+05 -5.6210E+04   8.2739E+05  0.000E+00  0.000E+00  0.000E+00  1.24303E+02  1.458E+00  5.000E+00  5.000E+03 -2.248E+01
   1    4    5     1     3    8.2739E+05 -5.3033E+04   8.8042E+05  0.000E+00  0.000E+00  0.000E+00  1.23258E+02  1.517E+00  5.000E+00  5.000E+03 -2.121E+01
   1    4    6     1     4    8.8042E+05 -4.3323E+04   9.2375E+05  0.000E+00  0.000E+00  0.000E+00  1.22205E+02  1.567E+00  5.000E+00  5.000E+03 -1.733E+01
   1    4    7     1     5    9.2375E+05 -2.1106E+04   9.4485E+05  0.000E+00  0.000E+00  0.000E+00  1.21411E+02  1.601E+00  5.000E+00  2.500E+03 -1.688E+01
   1    4    8     1     6    9.4485E+05 -3.4673E+04   9.7952E+05  0.000E+00  0.000E+00  0.000E+00  1.20750E+02  1.629E+00  5.000E+00  3.750E+03 -1.849E+01
   1    5    8     1     7    9.7952E+05 -3.6463E+04   1.0160E+06  0.000E+00  0.000E+00  0.000E+00  1.19820E+02  1.665E+00  5.000E+00  5.000E+03 -1.459E+01
   1    6    8     1     8    1.0160E+06 -2.5066E+04   1.0411E+06  0.000E+00  0.000E+00  0.000E+00  1.18748E+02  1.696E+00  5.000E+00  5.000E+03 -1.003E+01
   1   12    9     2     1    1.3400E+06 -2.6694E+04   1.3667E+06  0.000E+00  0.000E+00  0.000E+00  1.16625E+02  2.185E+00  5.000E+00  5.000E+03 -1.068E+01
   1   13    9     2     2    1.3667E+06 -4.1898E+04   1.4086E+06  0.000E+00  0.000E+00  0.000E+00  1.15837E+02  2.218E+00  5.000E+00  5.000E+03 -1.676E+01
   1   14   10     2     3    1.4086E+06 -2.2621E+04   1.4312E+06  0.000E+00  0.000E+00  0.000E+00  1.15228E+02  2.249E+00  5.000E+00  2.795E+03 -1.619E+01
   1   14   10     2     4    1.4312E+06 -2.3842E+04   1.4551E+06  0.000E+00  0.000E+00  0.000E+00  1.14792E+02  2.271E+00  5.000E+00  2.795E+03 -1.706E+01
   1   15   10     2     5    1.4551E+06 -4.0017E+04   1.4951E+06  0.000E+00  0.000E+00  0.000E+00  1.14182E+02  2.301E+00  5.000E+00  5.000E+03 -1.601E+01
   1   16   10     2     6    1.4951E+06 -2.6779E+04   1.5218E+06  0.000E+00  0.000E+00  0.000E+00  1.13392E+02  2.332E+00  5.000E+00  5.000E+03 -1.071E+01
   1   22   10     3     1    1.8453E+06 -2.7506E+04   1.8728E+06  0.000E+00  0.000E+00  0.000E+00  1.11489E+02  2.533E+00  5.000E+00  5.000E+03 -1.100E+01
   1   23   10     3     2    1.8728E+06 -3.9726E+04   1.9126E+06  0.000E+00  0.000E+00  0.000E+00  1.10689E+02  2.561E+00  5.000E+00  3.750E+03 -2.119E+01
   1   23   11     3     3    1.9126E+06 -2.3568E+04   1.9361E+06  0.000E+00  0.000E+00  0.000E+00  1.10123E+02  2.586E+00  5.000E+00  2.500E+03 -1.885E+01
   1   23   12     3     4    1.9361E+06 -4.6795E+04   1.9829E+06  0.000E+00  0.000E+00  0.000E+00  1.09442E+02  2.615E+00  5.000E+00  5.000E+03 -1.872E+01
   1   23   13     3     5    1.9829E+06 -5.0454E+04   2.0334E+06  0.000E+00  0.000E+00  0.000E+00  1.08535E+02  2.653E+00  5.000E+00  5.000E+03 -2.018E+01
   1   23   14     3     6    2.0334E+06 -5.4247E+04   2.0876E+06  0.000E+00  0.000E+00  0.000E+00  1.07631E+02  2.695E+00  5.000E+00  5.000E+03 -2.170E+01
   1   23   15     3     7    2.0876E+06 -6.1688E+04   2.1493E+06  0.000E+00  0.000E+00  0.000E+00  1.06730E+02  2.740E+00  5.000E+00  5.000E+03 -2.468E+01
   1   23   16     3     8    2.1493E+06 -8.9981E+04   2.2393E+06  0.000E+00  0.000E+00  0.000E+00  1.05843E+02  2.798E+00  5.000E+00  5.000E+03 -3.599E+01





     0  LAKE CELLS ARE DRY.

 PERIOD     1     TIME STEP   123     TIME STEP LENGTH  8.0527E+00
 PERIOD TIME  7.4217E+02     TOTAL SIMULATION TIME  7.4217E+02


                 HYDROLOGIC BUDGET SUMMARIES FOR SIMULATED LAKES
     (ALL FLUID FLUXES ARE VOLUMES ADDED TO THE LAKE DURING PRESENT TIME STEP)
     -------------------------------------------------------------------------
 LAKE    STAGE         VOLUME     VOL.CHANGE      PRECIP     EVAPORATION        RUNOFF
   1   117.0221     8.5137E+07    2.7440E+03    5.8382E+05    5.1839E+05    0.0000E+00
   2   111.9508     5.3441E+07    5.8880E+03    5.8382E+05    5.1839E+05    0.0000E+00

            GROUND WATER            SURFACE WATER        WATER
 LAKE    INFLOW     OUTFLOW      INFLOW     OUTFLOW       USE
   1  2.3446E+06  0.0000E+00  8.3832E+06  1.0791E+07  0.0000E+00
   2  2.5453E+06  0.0000E+00  1.2255E+07  1.4860E+07  0.0000E+00

      CONNECTED LAKE   TIME-STEP         STAGE-CHANGE          PERCENT
 LAKE    INFLUX      SURFACE AREA   TIME STEP  CUMULATIVE    DISCREPANCY
   1   0.0000E+00     6.2500E+06   4.3922E-04 -1.2978E+01       0.000
   2   0.0000E+00     6.2500E+06   9.4198E-04 -1.8049E+01       0.000
 --------------------------------------------------------------------------------



            CUMULATIVE HYDROLOGIC BUDGET SUMMARIES FOR SIMULATED LAKES
     (ALL FLUID FLUXES ARE SUMS OF VOLUMES ADDED TO THE LAKE SINCE INITIAL TIME)
     ---------------------------------------------------------------------------
 LAKE       PRECIP       EVAP       RUNOFF
   1     5.3807E+07  4.7777E+07  0.0000E+00
   2     5.3807E+07  4.7777E+07  0.0000E+00

            GROUND WATER            SURFACE WATER
 LAKE    INFLOW     OUTFLOW      INFLOW     OUTFLOW
   1  1.4405E+08  1.5644E+06  7.0757E+08  9.3719E+08
   2  1.6493E+08  1.4259E+06  1.0313E+09  1.3136E+09

         WATER    CONNECTED LAKE   CHANGE       PERCENT
 LAKE     USE         INFLUX       IN VOL.    DISCREPANCY
   1   0.0000E+00   0.0000E+00  -8.1111E+07      0.000
   2   0.0000E+00   0.0000E+00  -1.1281E+08      0.000
 --------------------------------------------------------------------------------

 
 SOLVING FOR HEAD 
     5 ITERATIONS FOR TIME STEP 124 IN STRESS PERIOD    1

 HEAD/DRAWDOWN PRINTOUT FLAG = 0     TOTAL BUDGET PRINTOUT FLAG = 0
 CELL-BY-CELL FLOW TERM FLAG = 1

 OUTPUT FLAGS FOR ALL LAYERS ARE THE SAME:
   HEAD    DRAWDOWN  HEAD  DRAWDOWN
 PRINTOUT  PRINTOUT  SAVE    SAVE
 ----------------------------------
     0         0       0       0



 STREAM LISTING     PERIOD      1   STEP      124

 LAYER ROW COL. STREAM  RCH.  FLOW INTO     FLOW TO   FLOW OUT OF   OVRLND.     DIRECT     STREAM       STREAM     STREAM     STREAM   STREAMBED  STREAMBED
                SEG.NO.  NO.  STRM. RCH.    AQUIFER    STRM. RCH.    RUNOFF     PRECIP       ET          HEAD       DEPTH      WIDTH   CONDCTNC.   GRADIENT

   1    2    5     1     1    6.9120E+05 -7.9983E+04   7.7118E+05  0.000E+00  0.000E+00  0.000E+00  1.25330E+02  1.382E+00  5.000E+00  5.000E+03 -3.199E+01
   1    3    5     1     2    7.7118E+05 -5.6220E+04   8.2740E+05  0.000E+00  0.000E+00  0.000E+00  1.24303E+02  1.458E+00  5.000E+00  5.000E+03 -2.249E+01
   1    4    5     1     3    8.2740E+05 -5.3053E+04   8.8046E+05  0.000E+00  0.000E+00  0.000E+00  1.23258E+02  1.517E+00  5.000E+00  5.000E+03 -2.122E+01
   1    4    6     1     4    8.8046E+05 -4.3341E+04   9.2380E+05  0.000E+00  0.000E+00  0.000E+00  1.22205E+02  1.568E+00  5.000E+00  5.000E+03 -1.734E+01
   1    4    7     1     5    9.2380E+05 -2.1114E+04   9.4491E+05  0.000E+00  0.000E+00  0.000E+00  1.21411E+02  1.601E+00  5.000E+00  2.500E+03 -1.689E+01
   1    4    8     1     6    9.4491E+05 -3.4685E+04   9.7960E+05  0.000E+00  0.000E+00  0.000E+00  1.20750E+02  1.629E+00  5.000E+00  3.750E+03 -1.850E+01
   1    5    8     1     7    9.7960E+05 -3.6486E+04   1.0161E+06  0.000E+00  0.000E+00  0.000E+00  1.19820E+02  1.665E+00  5.000E+00  5.000E+03 -1.459E+01
   1    6    8     1     8    1.0161E+06 -2.5085E+04   1.0412E+06  0.000E+00  0.000E+00  0.000E+00  1.18748E+02  1.696E+00  5.000E+00  5.000E+03 -1.003E+01
   1   12    9     2     1    1.3404E+06 -2.6728E+04   1.3672E+06  0.000E+00  0.000E+00  0.000E+00  1.16625E+02  2.186E+00  5.000E+00  5.000E+03 -1.069E+01
   1   13    9     2     2    1.3672E+06 -4.1960E+04   1.4091E+06  0.000E+00  0.000E+00  0.000E+00  1.15838E+02  2.219E+00  5.000E+00  5.000E+03 -1.678E+01
   1   14   10     2     3    1.4091E+06 -2.2654E+04   1.4318E+06  0.000E+00  0.000E+00  0.000E+00  1.15229E+02  2.250E+00  5.000E+00  2.795E+03 -1.621E+01
   1   14   10     2     4    1.4318E+06 -2.3875E+04   1.4556E+06  0.000E+00  0.000E+00  0.000E+00  1.14792E+02  2.272E+00  5.000E+00  2.795E+03 -1.708E+01
   1   15   10     2     5    1.4556E+06 -4.0074E+04   1.4957E+06  0.000E+00  0.000E+00  0.000E+00  1.14183E+02  2.302E+00  5.000E+00  5.000E+03 -1.603E+01
   1   16   10     2     6    1.4957E+06 -2.6815E+04   1.5225E+06  0.000E+00  0.000E+00  0.000E+00  1.13393E+02  2.333E+00  5.000E+00  5.000E+03 -1.073E+01
   1   22   10     3     1    1.8464E+06 -2.7526E+04   1.8739E+06  0.000E+00  0.000E+00  0.000E+00  1.11490E+02  2.534E+00  5.000E+00  5.000E+03 -1.101E+01
   1   23   10     3     2    1.8739E+06 -3.9749E+04   1.9137E+06  0.000E+00  0.000E+00  0.000E+00  1.10690E+02  2.562E+00  5.000E+00  3.750E+03 -2.120E+01
   1   23   11     3     3    1.9137E+06 -2.3580E+04   1.9373E+06  0.000E+00  0.000E+00  0.000E+00  1.10124E+02  2.587E+00  5.000E+00  2.500E+03 -1.886E+01
   1   23   12     3     4    1.9373E+06 -4.6816E+04   1.9841E+06  0.000E+00  0.000E+00  0.000E+00  1.09443E+02  2.616E+00  5.000E+00  5.000E+03 -1.873E+01
   1   23   13     3     5    1.9841E+06 -5.0474E+04   2.0346E+06  0.000E+00  0.000E+00  0.000E+00  1.08536E+02  2.654E+00  5.000E+00  5.000E+03 -2.019E+01
   1   23   14     3     6    2.0346E+06 -5.4263E+04   2.0888E+06  0.000E+00  0.000E+00  0.000E+00  1.07632E+02  2.696E+00  5.000E+00  5.000E+03 -2.171E+01
   1   23   15     3     7    2.0888E+06 -6.1698E+04   2.1505E+06  0.000E+00  0.000E+00  0.000E+00  1.06731E+02  2.741E+00  5.000E+00  5.000E+03 -2.468E+01
   1   23   16     3     8    2.1505E+06 -8.9983E+04   2.2405E+06  0.000E+00  0.000E+00  0.000E+00  1.05844E+02  2.799E+00  5.000E+00  5.000E+03 -3.599E+01





     0  LAKE CELLS ARE DRY.

 PERIOD     1     TIME STEP   124     TIME STEP LENGTH  8.0929E+00
 PERIOD TIME  7.5026E+02     TOTAL SIMULATION TIME  7.5026E+02


                 HYDROLOGIC BUDGET SUMMARIES FOR SIMULATED LAKES
     (ALL FLUID FLUXES ARE VOLUMES ADDED TO THE LAKE DURING PRESENT TIME STEP)
     -------------------------------------------------------------------------
 LAKE    STAGE         VOLUME     VOL.CHANGE      PRECIP     EVAPORATION        RUNOFF
   1   117.0225     8.5140E+07    2.5920E+03    5.8674E+05    5.2098E+05    0.0000E+00
   2   111.9517     5.3447E+07    5.5440E+03    5.8674E+05    5.2098E+05    0.0000E+00

            GROUND WATER            SURFACE WATER        WATER
 LAKE    INFLOW     OUTFLOW      INFLOW     OUTFLOW       USE
   1  2.3587E+06  0.0000E+00  8.4261E+06  1.0848E+07  0.0000E+00
   2  2.5609E+06  0.0000E+00  1.2322E+07  1.4943E+07  0.0000E+00

      CONNECTED LAKE   TIME-STEP         STAGE-CHANGE          PERCENT
 LAKE    INFLUX      SURFACE AREA   TIME STEP  CUMULATIVE    DISCREPANCY
   1   0.0000E+00     6.2500E+06   4.1540E-04 -1.2977E+01       0.000
   2   0.0000E+00     6.2500E+06   8.8676E-04 -1.8048E+01       0.000
 --------------------------------------------------------------------------------



            CUMULATIVE HYDROLOGIC BUDGET SUMMARIES FOR SIMULATED LAKES
     (ALL FLUID FLUXES ARE SUMS OF VOLUMES ADDED TO THE LAKE SINCE INITIAL TIME)
     ---------------------------------------------------------------------------
 LAKE       PRECIP       EVAP       RUNOFF
   1     5.4394E+07  4.8298E+07  0.0000E+00
   2     5.4394E+07  4.8298E+07  0.0000E+00

            GROUND WATER            SURFACE WATER
 LAKE    INFLOW     OUTFLOW      INFLOW     OUTFLOW
   1  1.4641E+08  1.5644E+06  7.1599E+08  9.4804E+08
   2  1.6749E+08  1.4259E+06  1.0436E+09  1.3285E+09

         WATER    CONNECTED LAKE   CHANGE       PERCENT
 LAKE     USE         INFLUX       IN VOL.    DISCREPANCY
   1   0.0000E+00   0.0000E+00  -8.1108E+07      0.000
   2   0.0000E+00   0.0000E+00  -1.1280E+08      0.000
 --------------------------------------------------------------------------------

 
 SOLVING FOR HEAD 
     5 ITERATIONS FOR TIME STEP 125 IN STRESS PERIOD    1

 HEAD/DRAWDOWN PRINTOUT FLAG = 0     TOTAL BUDGET PRINTOUT FLAG = 0
 CELL-BY-CELL FLOW TERM FLAG = 1

 OUTPUT FLAGS FOR ALL LAYERS ARE THE SAME:
   HEAD    DRAWDOWN  HEAD  DRAWDOWN
 PRINTOUT  PRINTOUT  SAVE    SAVE
 ----------------------------------
     0         0       0       0



 STREAM LISTING     PERIOD      1   STEP      125

 LAYER ROW COL. STREAM  RCH.  FLOW INTO     FLOW TO   FLOW OUT OF   OVRLND.     DIRECT     STREAM       STREAM     STREAM     STREAM   STREAMBED  STREAMBED
                SEG.NO.  NO.  STRM. RCH.    AQUIFER    STRM. RCH.    RUNOFF     PRECIP       ET          HEAD       DEPTH      WIDTH   CONDCTNC.   GRADIENT

   1    2    5     1     1    6.9120E+05 -7.9986E+04   7.7119E+05  0.000E+00  0.000E+00  0.000E+00  1.25330E+02  1.382E+00  5.000E+00  5.000E+03 -3.199E+01
   1    3    5     1     2    7.7119E+05 -5.6229E+04   8.2741E+05  0.000E+00  0.000E+00  0.000E+00  1.24303E+02  1.458E+00  5.000E+00  5.000E+03 -2.249E+01
   1    4    5     1     3    8.2741E+05 -5.3072E+04   8.8049E+05  0.000E+00  0.000E+00  0.000E+00  1.23258E+02  1.517E+00  5.000E+00  5.000E+03 -2.123E+01
   1    4    6     1     4    8.8049E+05 -4.3358E+04   9.2385E+05  0.000E+00  0.000E+00  0.000E+00  1.22205E+02  1.568E+00  5.000E+00  5.000E+03 -1.734E+01
   1    4    7     1     5    9.2385E+05 -2.1121E+04   9.4497E+05  0.000E+00  0.000E+00  0.000E+00  1.21411E+02  1.601E+00  5.000E+00  2.500E+03 -1.690E+01
   1    4    8     1     6    9.4497E+05 -3.4697E+04   9.7966E+05  0.000E+00  0.000E+00  0.000E+00  1.20750E+02  1.629E+00  5.000E+00  3.750E+03 -1.850E+01
   1    5    8     1     7    9.7966E+05 -3.6507E+04   1.0162E+06  0.000E+00  0.000E+00  0.000E+00  1.19821E+02  1.665E+00  5.000E+00  5.000E+03 -1.460E+01
   1    6    8     1     8    1.0162E+06 -2.5103E+04   1.0413E+06  0.000E+00  0.000E+00  0.000E+00  1.18748E+02  1.696E+00  5.000E+00  5.000E+03 -1.004E+01
   1   12    9     2     1    1.3408E+06 -2.6760E+04   1.3676E+06  0.000E+00  0.000E+00  0.000E+00  1.16626E+02  2.186E+00  5.000E+00  5.000E+03 -1.070E+01
   1   13    9     2     2    1.3676E+06 -4.2018E+04   1.4096E+06  0.000E+00  0.000E+00  0.000E+00  1.15838E+02  2.219E+00  5.000E+00  5.000E+03 -1.681E+01
   1   14   10     2     3    1.4096E+06 -2.2685E+04   1.4323E+06  0.000E+00  0.000E+00  0.000E+00  1.15229E+02  2.250E+00  5.000E+00  2.795E+03 -1.623E+01
   1   14   10     2     4    1.4323E+06 -2.3906E+04   1.4562E+06  0.000E+00  0.000E+00  0.000E+00  1.14793E+02  2.272E+00  5.000E+00  2.795E+03 -1.711E+01
   1   15   10     2     5    1.4562E+06 -4.0129E+04   1.4963E+06  0.000E+00  0.000E+00  0.000E+00  1.14183E+02  2.302E+00  5.000E+00  5.000E+03 -1.605E+01
   1   16   10     2     6    1.4963E+06 -2.6850E+04   1.5232E+06  0.000E+00  0.000E+00  0.000E+00  1.13394E+02  2.333E+00  5.000E+00  5.000E+03 -1.074E+01
   1   22   10     3     1    1.8474E+06 -2.7545E+04   1.8750E+06  0.000E+00  0.000E+00  0.000E+00  1.11491E+02  2.535E+00  5.000E+00  5.000E+03 -1.102E+01
   1   23   10     3     2    1.8750E+06 -3.9771E+04   1.9148E+06  0.000E+00  0.000E+00  0.000E+00  1.10691E+02  2.563E+00  5.000E+00  3.750E+03 -2.121E+01
   1   23   11     3     3    1.9148E+06 -2.3591E+04   1.9383E+06  0.000E+00  0.000E+00  0.000E+00  1.10125E+02  2.588E+00  5.000E+00  2.500E+03 -1.887E+01
   1   23   12     3     4    1.9383E+06 -4.6836E+04   1.9852E+06  0.000E+00  0.000E+00  0.000E+00  1.09444E+02  2.617E+00  5.000E+00  5.000E+03 -1.873E+01
   1   23   13     3     5    1.9852E+06 -5.0493E+04   2.0357E+06  0.000E+00  0.000E+00  0.000E+00  1.08537E+02  2.655E+00  5.000E+00  5.000E+03 -2.020E+01
   1   23   14     3     6    2.0357E+06 -5.4277E+04   2.0900E+06  0.000E+00  0.000E+00  0.000E+00  1.07633E+02  2.697E+00  5.000E+00  5.000E+03 -2.171E+01
   1   23   15     3     7    2.0900E+06 -6.1707E+04   2.1517E+06  0.000E+00  0.000E+00  0.000E+00  1.06732E+02  2.742E+00  5.000E+00  5.000E+03 -2.468E+01
   1   23   16     3     8    2.1517E+06 -8.9986E+04   2.2416E+06  0.000E+00  0.000E+00  0.000E+00  1.05845E+02  2.800E+00  5.000E+00  5.000E+03 -3.599E+01





     0  LAKE CELLS ARE DRY.

 PERIOD     1     TIME STEP   125     TIME STEP LENGTH  8.1334E+00
 PERIOD TIME  7.5840E+02     TOTAL SIMULATION TIME  7.5840E+02


                 HYDROLOGIC BUDGET SUMMARIES FOR SIMULATED LAKES
     (ALL FLUID FLUXES ARE VOLUMES ADDED TO THE LAKE DURING PRESENT TIME STEP)
     -------------------------------------------------------------------------
 LAKE    STAGE         VOLUME     VOL.CHANGE      PRECIP     EVAPORATION        RUNOFF
   1   117.0229     8.5142E+07    2.4560E+03    5.8967E+05    5.2359E+05    0.0000E+00
   2   111.9525     5.3452E+07    5.2440E+03    5.8967E+05    5.2359E+05    0.0000E+00

            GROUND WATER            SURFACE WATER        WATER
 LAKE    INFLOW     OUTFLOW      INFLOW     OUTFLOW       USE
   1  2.3728E+06  0.0000E+00  8.4691E+06  1.0905E+07  0.0000E+00
   2  2.5765E+06  0.0000E+00  1.2389E+07  1.5026E+07  0.0000E+00

      CONNECTED LAKE   TIME-STEP         STAGE-CHANGE          PERCENT
 LAKE    INFLUX      SURFACE AREA   TIME STEP  CUMULATIVE    DISCREPANCY
   1   0.0000E+00     6.2500E+06   3.9194E-04 -1.2977E+01       0.000
   2   0.0000E+00     6.2500E+06   8.3914E-04 -1.8047E+01       0.000
 --------------------------------------------------------------------------------



            CUMULATIVE HYDROLOGIC BUDGET SUMMARIES FOR SIMULATED LAKES
     (ALL FLUID FLUXES ARE SUMS OF VOLUMES ADDED TO THE LAKE SINCE INITIAL TIME)
     ---------------------------------------------------------------------------
 LAKE       PRECIP       EVAP       RUNOFF
   1     5.4984E+07  4.8822E+07  0.0000E+00
   2     5.4984E+07  4.8822E+07  0.0000E+00

            GROUND WATER            SURFACE WATER
 LAKE    INFLOW     OUTFLOW      INFLOW     OUTFLOW
   1  1.4878E+08  1.5644E+06  7.2446E+08  9.5894E+08
   2  1.7007E+08  1.4259E+06  1.0560E+09  1.3436E+09

         WATER    CONNECTED LAKE   CHANGE       PERCENT
 LAKE     USE         INFLUX       IN VOL.    DISCREPANCY
   1   0.0000E+00   0.0000E+00  -8.1106E+07      0.000
   2   0.0000E+00   0.0000E+00  -1.1280E+08      0.000
 --------------------------------------------------------------------------------

 
 SOLVING FOR HEAD 
     5 ITERATIONS FOR TIME STEP 126 IN STRESS PERIOD    1

 HEAD/DRAWDOWN PRINTOUT FLAG = 0     TOTAL BUDGET PRINTOUT FLAG = 0
 CELL-BY-CELL FLOW TERM FLAG = 1

 OUTPUT FLAGS FOR ALL LAYERS ARE THE SAME:
   HEAD    DRAWDOWN  HEAD  DRAWDOWN
 PRINTOUT  PRINTOUT  SAVE    SAVE
 ----------------------------------
     0         0       0       0



 STREAM LISTING     PERIOD      1   STEP      126

 LAYER ROW COL. STREAM  RCH.  FLOW INTO     FLOW TO   FLOW OUT OF   OVRLND.     DIRECT     STREAM       STREAM     STREAM     STREAM   STREAMBED  STREAMBED
                SEG.NO.  NO.  STRM. RCH.    AQUIFER    STRM. RCH.    RUNOFF     PRECIP       ET          HEAD       DEPTH      WIDTH   CONDCTNC.   GRADIENT

   1    2    5     1     1    6.9120E+05 -7.9988E+04   7.7119E+05  0.000E+00  0.000E+00  0.000E+00  1.25330E+02  1.382E+00  5.000E+00  5.000E+03 -3.200E+01
   1    3    5     1     2    7.7119E+05 -5.6237E+04   8.2743E+05  0.000E+00  0.000E+00  0.000E+00  1.24303E+02  1.458E+00  5.000E+00  5.000E+03 -2.249E+01
   1    4    5     1     3    8.2743E+05 -5.3091E+04   8.8052E+05  0.000E+00  0.000E+00  0.000E+00  1.23258E+02  1.517E+00  5.000E+00  5.000E+03 -2.124E+01
   1    4    6     1     4    8.8052E+05 -4.3375E+04   9.2389E+05  0.000E+00  0.000E+00  0.000E+00  1.22206E+02  1.568E+00  5.000E+00  5.000E+03 -1.735E+01
   1    4    7     1     5    9.2389E+05 -2.1129E+04   9.4502E+05  0.000E+00  0.000E+00  0.000E+00  1.21411E+02  1.601E+00  5.000E+00  2.500E+03 -1.690E+01
   1    4    8     1     6    9.4502E+05 -3.4708E+04   9.7973E+05  0.000E+00  0.000E+00  0.000E+00  1.20750E+02  1.630E+00  5.000E+00  3.750E+03 -1.851E+01
   1    5    8     1     7    9.7973E+05 -3.6527E+04   1.0163E+06  0.000E+00  0.000E+00  0.000E+00  1.19821E+02  1.665E+00  5.000E+00  5.000E+03 -1.461E+01
   1    6    8     1     8    1.0163E+06 -2.5119E+04   1.0414E+06  0.000E+00  0.000E+00  0.000E+00  1.18748E+02  1.696E+00  5.000E+00  5.000E+03 -1.005E+01
   1   12    9     2     1    1.3412E+06 -2.6790E+04   1.3680E+06  0.000E+00  0.000E+00  0.000E+00  1.16626E+02  2.186E+00  5.000E+00  5.000E+03 -1.072E+01
   1   13    9     2     2    1.3680E+06 -4.2074E+04   1.4101E+06  0.000E+00  0.000E+00  0.000E+00  1.15839E+02  2.220E+00  5.000E+00  5.000E+03 -1.683E+01
   1   14   10     2     3    1.4101E+06 -2.2715E+04   1.4328E+06  0.000E+00  0.000E+00  0.000E+00  1.15230E+02  2.250E+00  5.000E+00  2.795E+03 -1.625E+01
   1   14   10     2     4    1.4328E+06 -2.3936E+04   1.4567E+06  0.000E+00  0.000E+00  0.000E+00  1.14793E+02  2.273E+00  5.000E+00  2.795E+03 -1.713E+01
   1   15   10     2     5    1.4567E+06 -4.0181E+04   1.4969E+06  0.000E+00  0.000E+00  0.000E+00  1.14184E+02  2.303E+00  5.000E+00  5.000E+03 -1.607E+01
   1   16   10     2     6    1.4969E+06 -2.6882E+04   1.5238E+06  0.000E+00  0.000E+00  0.000E+00  1.13394E+02  2.334E+00  5.000E+00  5.000E+03 -1.075E+01
   1   22   10     3     1    1.8484E+06 -2.7563E+04   1.8760E+06  0.000E+00  0.000E+00  0.000E+00  1.11492E+02  2.536E+00  5.000E+00  5.000E+03 -1.103E+01
   1   23   10     3     2    1.8760E+06 -3.9791E+04   1.9158E+06  0.000E+00  0.000E+00  0.000E+00  1.10692E+02  2.563E+00  5.000E+00  3.750E+03 -2.122E+01
   1   23   11     3     3    1.9158E+06 -2.3602E+04   1.9394E+06  0.000E+00  0.000E+00  0.000E+00  1.10126E+02  2.589E+00  5.000E+00  2.500E+03 -1.888E+01
   1   23   12     3     4    1.9394E+06 -4.6855E+04   1.9862E+06  0.000E+00  0.000E+00  0.000E+00  1.09445E+02  2.617E+00  5.000E+00  5.000E+03 -1.874E+01
   1   23   13     3     5    1.9862E+06 -5.0511E+04   2.0367E+06  0.000E+00  0.000E+00  0.000E+00  1.08538E+02  2.656E+00  5.000E+00  5.000E+03 -2.020E+01
   1   23   14     3     6    2.0367E+06 -5.4291E+04   2.0910E+06  0.000E+00  0.000E+00  0.000E+00  1.07633E+02  2.697E+00  5.000E+00  5.000E+03 -2.172E+01
   1   23   15     3     7    2.0910E+06 -6.1716E+04   2.1527E+06  0.000E+00  0.000E+00  0.000E+00  1.06733E+02  2.743E+00  5.000E+00  5.000E+03 -2.469E+01
   1   23   16     3     8    2.1527E+06 -8.9988E+04   2.2427E+06  0.000E+00  0.000E+00  0.000E+00  1.05845E+02  2.801E+00  5.000E+00  5.000E+03 -3.600E+01





     0  LAKE CELLS ARE DRY.

 PERIOD     1     TIME STEP   126     TIME STEP LENGTH  8.1741E+00
 PERIOD TIME  7.6657E+02     TOTAL SIMULATION TIME  7.6657E+02


                 HYDROLOGIC BUDGET SUMMARIES FOR SIMULATED LAKES
     (ALL FLUID FLUXES ARE VOLUMES ADDED TO THE LAKE DURING PRESENT TIME STEP)
     -------------------------------------------------------------------------
 LAKE    STAGE         VOLUME     VOL.CHANGE      PRECIP     EVAPORATION        RUNOFF
   1   117.0233     8.5145E+07    2.3040E+03    5.9262E+05    5.2620E+05    0.0000E+00
   2   111.9533     5.3457E+07    4.9280E+03    5.9262E+05    5.2620E+05    0.0000E+00

            GROUND WATER            SURFACE WATER        WATER
 LAKE    INFLOW     OUTFLOW      INFLOW     OUTFLOW       USE
   1  2.3868E+06  0.0000E+00  8.5122E+06  1.0963E+07  0.0000E+00
   2  2.5919E+06  0.0000E+00  1.2456E+07  1.5109E+07  0.0000E+00

      CONNECTED LAKE   TIME-STEP         STAGE-CHANGE          PERCENT
 LAKE    INFLUX      SURFACE AREA   TIME STEP  CUMULATIVE    DISCREPANCY
   1   0.0000E+00     6.2500E+06   3.6901E-04 -1.2977E+01       0.000
   2   0.0000E+00     6.2500E+06   7.8877E-04 -1.8047E+01       0.000
 --------------------------------------------------------------------------------



            CUMULATIVE HYDROLOGIC BUDGET SUMMARIES FOR SIMULATED LAKES
     (ALL FLUID FLUXES ARE SUMS OF VOLUMES ADDED TO THE LAKE SINCE INITIAL TIME)
     ---------------------------------------------------------------------------
 LAKE       PRECIP       EVAP       RUNOFF
   1     5.5576E+07  4.9348E+07  0.0000E+00
   2     5.5576E+07  4.9348E+07  0.0000E+00

            GROUND WATER            SURFACE WATER
 LAKE    INFLOW     OUTFLOW      INFLOW     OUTFLOW
   1  1.5116E+08  1.5644E+06  7.3297E+08  9.6991E+08
   2  1.7266E+08  1.4259E+06  1.0684E+09  1.3587E+09

         WATER    CONNECTED LAKE   CHANGE       PERCENT
 LAKE     USE         INFLUX       IN VOL.    DISCREPANCY
   1   0.0000E+00   0.0000E+00  -8.1104E+07      0.000
   2   0.0000E+00   0.0000E+00  -1.1279E+08      0.000
 --------------------------------------------------------------------------------

 
 SOLVING FOR HEAD 
     5 ITERATIONS FOR TIME STEP 127 IN STRESS PERIOD    1

 HEAD/DRAWDOWN PRINTOUT FLAG = 0     TOTAL BUDGET PRINTOUT FLAG = 0
 CELL-BY-CELL FLOW TERM FLAG = 1

 OUTPUT FLAGS FOR ALL LAYERS ARE THE SAME:
   HEAD    DRAWDOWN  HEAD  DRAWDOWN
 PRINTOUT  PRINTOUT  SAVE    SAVE
 ----------------------------------
     0         0       0       0



 STREAM LISTING     PERIOD      1   STEP      127

 LAYER ROW COL. STREAM  RCH.  FLOW INTO     FLOW TO   FLOW OUT OF   OVRLND.     DIRECT     STREAM       STREAM     STREAM     STREAM   STREAMBED  STREAMBED
                SEG.NO.  NO.  STRM. RCH.    AQUIFER    STRM. RCH.    RUNOFF     PRECIP       ET          HEAD       DEPTH      WIDTH   CONDCTNC.   GRADIENT

   1    2    5     1     1    6.9120E+05 -7.9991E+04   7.7119E+05  0.000E+00  0.000E+00  0.000E+00  1.25330E+02  1.382E+00  5.000E+00  5.000E+03 -3.200E+01
   1    3    5     1     2    7.7119E+05 -5.6245E+04   8.2744E+05  0.000E+00  0.000E+00  0.000E+00  1.24303E+02  1.458E+00  5.000E+00  5.000E+03 -2.250E+01
   1    4    5     1     3    8.2744E+05 -5.3108E+04   8.8054E+05  0.000E+00  0.000E+00  0.000E+00  1.23258E+02  1.517E+00  5.000E+00  5.000E+03 -2.124E+01
   1    4    6     1     4    8.8054E+05 -4.3390E+04   9.2393E+05  0.000E+00  0.000E+00  0.000E+00  1.22206E+02  1.568E+00  5.000E+00  5.000E+03 -1.736E+01
   1    4    7     1     5    9.2393E+05 -2.1136E+04   9.4507E+05  0.000E+00  0.000E+00  0.000E+00  1.21411E+02  1.601E+00  5.000E+00  2.500E+03 -1.691E+01
   1    4    8     1     6    9.4507E+05 -3.4718E+04   9.7979E+05  0.000E+00  0.000E+00  0.000E+00  1.20750E+02  1.630E+00  5.000E+00  3.750E+03 -1.852E+01
   1    5    8     1     7    9.7979E+05 -3.6545E+04   1.0163E+06  0.000E+00  0.000E+00  0.000E+00  1.19821E+02  1.666E+00  5.000E+00  5.000E+03 -1.462E+01
   1    6    8     1     8    1.0163E+06 -2.5135E+04   1.0415E+06  0.000E+00  0.000E+00  0.000E+00  1.18748E+02  1.696E+00  5.000E+00  5.000E+03 -1.005E+01
   1   12    9     2     1    1.3416E+06 -2.6819E+04   1.3684E+06  0.000E+00  0.000E+00  0.000E+00  1.16626E+02  2.187E+00  5.000E+00  5.000E+03 -1.073E+01
   1   13    9     2     2    1.3684E+06 -4.2127E+04   1.4105E+06  0.000E+00  0.000E+00  0.000E+00  1.15839E+02  2.220E+00  5.000E+00  5.000E+03 -1.685E+01
   1   14   10     2     3    1.4105E+06 -2.2744E+04   1.4333E+06  0.000E+00  0.000E+00  0.000E+00  1.15230E+02  2.251E+00  5.000E+00  2.795E+03 -1.627E+01
   1   14   10     2     4    1.4333E+06 -2.3964E+04   1.4572E+06  0.000E+00  0.000E+00  0.000E+00  1.14794E+02  2.273E+00  5.000E+00  2.795E+03 -1.715E+01
   1   15   10     2     5    1.4572E+06 -4.0231E+04   1.4975E+06  0.000E+00  0.000E+00  0.000E+00  1.14184E+02  2.303E+00  5.000E+00  5.000E+03 -1.609E+01
   1   16   10     2     6    1.4975E+06 -2.6914E+04   1.5244E+06  0.000E+00  0.000E+00  0.000E+00  1.13395E+02  2.334E+00  5.000E+00  5.000E+03 -1.077E+01
   1   22   10     3     1    1.8493E+06 -2.7580E+04   1.8769E+06  0.000E+00  0.000E+00  0.000E+00  1.11492E+02  2.537E+00  5.000E+00  5.000E+03 -1.103E+01
   1   23   10     3     2    1.8769E+06 -3.9811E+04   1.9167E+06  0.000E+00  0.000E+00  0.000E+00  1.10692E+02  2.564E+00  5.000E+00  3.750E+03 -2.123E+01
   1   23   11     3     3    1.9167E+06 -2.3612E+04   1.9403E+06  0.000E+00  0.000E+00  0.000E+00  1.10127E+02  2.590E+00  5.000E+00  2.500E+03 -1.889E+01
   1   23   12     3     4    1.9403E+06 -4.6874E+04   1.9872E+06  0.000E+00  0.000E+00  0.000E+00  1.09446E+02  2.618E+00  5.000E+00  5.000E+03 -1.875E+01
   1   23   13     3     5    1.9872E+06 -5.0528E+04   2.0377E+06  0.000E+00  0.000E+00  0.000E+00  1.08539E+02  2.657E+00  5.000E+00  5.000E+03 -2.021E+01
   1   23   14     3     6    2.0377E+06 -5.4304E+04   2.0920E+06  0.000E+00  0.000E+00  0.000E+00  1.07634E+02  2.698E+00  5.000E+00  5.000E+03 -2.172E+01
   1   23   15     3     7    2.0920E+06 -6.1724E+04   2.1538E+06  0.000E+00  0.000E+00  0.000E+00  1.06734E+02  2.743E+00  5.000E+00  5.000E+03 -2.469E+01
   1   23   16     3     8    2.1538E+06 -8.9990E+04   2.2437E+06  0.000E+00  0.000E+00  0.000E+00  1.05846E+02  2.802E+00  5.000E+00  5.000E+03 -3.600E+01





     0  LAKE CELLS ARE DRY.

 PERIOD     1     TIME STEP   127     TIME STEP LENGTH  8.2149E+00
 PERIOD TIME  7.7479E+02     TOTAL SIMULATION TIME  7.7479E+02


                 HYDROLOGIC BUDGET SUMMARIES FOR SIMULATED LAKES
     (ALL FLUID FLUXES ARE VOLUMES ADDED TO THE LAKE DURING PRESENT TIME STEP)
     -------------------------------------------------------------------------
 LAKE    STAGE         VOLUME     VOL.CHANGE      PRECIP     EVAPORATION        RUNOFF
   1   117.0236     8.5147E+07    2.1840E+03    5.9558E+05    5.2884E+05    0.0000E+00
   2   111.9540     5.3462E+07    4.6920E+03    5.9558E+05    5.2884E+05    0.0000E+00

            GROUND WATER            SURFACE WATER        WATER
 LAKE    INFLOW     OUTFLOW      INFLOW     OUTFLOW       USE
   1  2.4008E+06  0.0000E+00  8.5556E+06  1.1021E+07  0.0000E+00
   2  2.6074E+06  0.0000E+00  1.2523E+07  1.5192E+07  0.0000E+00

      CONNECTED LAKE   TIME-STEP         STAGE-CHANGE          PERCENT
 LAKE    INFLUX      SURFACE AREA   TIME STEP  CUMULATIVE    DISCREPANCY
   1   0.0000E+00     6.2500E+06   3.4957E-04 -1.2976E+01       0.000
   2   0.0000E+00     6.2500E+06   7.5065E-04 -1.8046E+01       0.000
 --------------------------------------------------------------------------------



            CUMULATIVE HYDROLOGIC BUDGET SUMMARIES FOR SIMULATED LAKES
     (ALL FLUID FLUXES ARE SUMS OF VOLUMES ADDED TO THE LAKE SINCE INITIAL TIME)
     ---------------------------------------------------------------------------
 LAKE       PRECIP       EVAP       RUNOFF
   1     5.6172E+07  4.9877E+07  0.0000E+00
   2     5.6172E+07  4.9877E+07  0.0000E+00

            GROUND WATER            SURFACE WATER
 LAKE    INFLOW     OUTFLOW      INFLOW     OUTFLOW
   1  1.5357E+08  1.5644E+06  7.4153E+08  9.8093E+08
   2  1.7527E+08  1.4259E+06  1.0809E+09  1.3739E+09

         WATER    CONNECTED LAKE   CHANGE       PERCENT
 LAKE     USE         INFLUX       IN VOL.    DISCREPANCY
   1   0.0000E+00   0.0000E+00  -8.1102E+07      0.000
   2   0.0000E+00   0.0000E+00  -1.1279E+08      0.000
 --------------------------------------------------------------------------------

 
 SOLVING FOR HEAD 
     4 ITERATIONS FOR TIME STEP 128 IN STRESS PERIOD    1

 HEAD/DRAWDOWN PRINTOUT FLAG = 0     TOTAL BUDGET PRINTOUT FLAG = 0
 CELL-BY-CELL FLOW TERM FLAG = 1

 OUTPUT FLAGS FOR ALL LAYERS ARE THE SAME:
   HEAD    DRAWDOWN  HEAD  DRAWDOWN
 PRINTOUT  PRINTOUT  SAVE    SAVE
 ----------------------------------
     0         0       0       0



 STREAM LISTING     PERIOD      1   STEP      128

 LAYER ROW COL. STREAM  RCH.  FLOW INTO     FLOW TO   FLOW OUT OF   OVRLND.     DIRECT     STREAM       STREAM     STREAM     STREAM   STREAMBED  STREAMBED
                SEG.NO.  NO.  STRM. RCH.    AQUIFER    STRM. RCH.    RUNOFF     PRECIP       ET          HEAD       DEPTH      WIDTH   CONDCTNC.   GRADIENT

   1    2    5     1     1    6.9120E+05 -7.9993E+04   7.7119E+05  0.000E+00  0.000E+00  0.000E+00  1.25330E+02  1.382E+00  5.000E+00  5.000E+03 -3.200E+01
   1    3    5     1     2    7.7119E+05 -5.6253E+04   8.2745E+05  0.000E+00  0.000E+00  0.000E+00  1.24303E+02  1.458E+00  5.000E+00  5.000E+03 -2.250E+01
   1    4    5     1     3    8.2745E+05 -5.3124E+04   8.8057E+05  0.000E+00  0.000E+00  0.000E+00  1.23258E+02  1.517E+00  5.000E+00  5.000E+03 -2.125E+01
   1    4    6     1     4    8.8057E+05 -4.3405E+04   9.2397E+05  0.000E+00  0.000E+00  0.000E+00  1.22206E+02  1.568E+00  5.000E+00  5.000E+03 -1.736E+01
   1    4    7     1     5    9.2397E+05 -2.1142E+04   9.4512E+05  0.000E+00  0.000E+00  0.000E+00  1.21411E+02  1.601E+00  5.000E+00  2.500E+03 -1.691E+01
   1    4    8     1     6    9.4512E+05 -3.4728E+04   9.7984E+05  0.000E+00  0.000E+00  0.000E+00  1.20750E+02  1.630E+00  5.000E+00  3.750E+03 -1.852E+01
   1    5    8     1     7    9.7984E+05 -3.6563E+04   1.0164E+06  0.000E+00  0.000E+00  0.000E+00  1.19821E+02  1.666E+00  5.000E+00  5.000E+03 -1.463E+01
   1    6    8     1     8    1.0164E+06 -2.5150E+04   1.0416E+06  0.000E+00  0.000E+00  0.000E+00  1.18748E+02  1.696E+00  5.000E+00  5.000E+03 -1.006E+01
   1   12    9     2     1    1.3419E+06 -2.6847E+04   1.3688E+06  0.000E+00  0.000E+00  0.000E+00  1.16627E+02  2.187E+00  5.000E+00  5.000E+03 -1.074E+01
   1   13    9     2     2    1.3688E+06 -4.2177E+04   1.4109E+06  0.000E+00  0.000E+00  0.000E+00  1.15839E+02  2.220E+00  5.000E+00  5.000E+03 -1.687E+01
   1   14   10     2     3    1.4109E+06 -2.2771E+04   1.4337E+06  0.000E+00  0.000E+00  0.000E+00  1.15231E+02  2.251E+00  5.000E+00  2.795E+03 -1.629E+01
   1   14   10     2     4    1.4337E+06 -2.3991E+04   1.4577E+06  0.000E+00  0.000E+00  0.000E+00  1.14794E+02  2.273E+00  5.000E+00  2.795E+03 -1.717E+01
   1   15   10     2     5    1.4577E+06 -4.0278E+04   1.4980E+06  0.000E+00  0.000E+00  0.000E+00  1.14185E+02  2.304E+00  5.000E+00  5.000E+03 -1.611E+01
   1   16   10     2     6    1.4980E+06 -2.6943E+04   1.5249E+06  0.000E+00  0.000E+00  0.000E+00  1.13395E+02  2.335E+00  5.000E+00  5.000E+03 -1.078E+01
   1   22   10     3     1    1.8502E+06 -2.7596E+04   1.8778E+06  0.000E+00  0.000E+00  0.000E+00  1.11493E+02  2.537E+00  5.000E+00  5.000E+03 -1.104E+01
   1   23   10     3     2    1.8778E+06 -3.9829E+04   1.9176E+06  0.000E+00  0.000E+00  0.000E+00  1.10693E+02  2.565E+00  5.000E+00  3.750E+03 -2.124E+01
   1   23   11     3     3    1.9176E+06 -2.3622E+04   1.9412E+06  0.000E+00  0.000E+00  0.000E+00  1.10127E+02  2.590E+00  5.000E+00  2.500E+03 -1.890E+01
   1   23   12     3     4    1.9412E+06 -4.6891E+04   1.9881E+06  0.000E+00  0.000E+00  0.000E+00  1.09446E+02  2.619E+00  5.000E+00  5.000E+03 -1.876E+01
   1   23   13     3     5    1.9881E+06 -5.0545E+04   2.0386E+06  0.000E+00  0.000E+00  0.000E+00  1.08539E+02  2.658E+00  5.000E+00  5.000E+03 -2.022E+01
   1   23   14     3     6    2.0386E+06 -5.4317E+04   2.0930E+06  0.000E+00  0.000E+00  0.000E+00  1.07635E+02  2.699E+00  5.000E+00  5.000E+03 -2.173E+01
   1   23   15     3     7    2.0930E+06 -6.1733E+04   2.1547E+06  0.000E+00  0.000E+00  0.000E+00  1.06734E+02  2.744E+00  5.000E+00  5.000E+03 -2.469E+01
   1   23   16     3     8    2.1547E+06 -8.9993E+04   2.2447E+06  0.000E+00  0.000E+00  0.000E+00  1.05847E+02  2.802E+00  5.000E+00  5.000E+03 -3.600E+01





     0  LAKE CELLS ARE DRY.

 PERIOD     1     TIME STEP   128     TIME STEP LENGTH  8.2560E+00
 PERIOD TIME  7.8304E+02     TOTAL SIMULATION TIME  7.8304E+02


                 HYDROLOGIC BUDGET SUMMARIES FOR SIMULATED LAKES
     (ALL FLUID FLUXES ARE VOLUMES ADDED TO THE LAKE DURING PRESENT TIME STEP)
     -------------------------------------------------------------------------
 LAKE    STAGE         VOLUME     VOL.CHANGE      PRECIP     EVAPORATION        RUNOFF
   1   117.0240     8.5149E+07    2.0080E+03    5.9856E+05    5.3148E+05    0.0000E+00
   2   111.9548     5.3466E+07    4.5200E+03    5.9856E+05    5.3148E+05    0.0000E+00

            GROUND WATER            SURFACE WATER        WATER
 LAKE    INFLOW     OUTFLOW      INFLOW     OUTFLOW       USE
   1  2.4146E+06  0.0000E+00  8.5991E+06  1.1079E+07  0.0000E+00
   2  2.6227E+06  0.0000E+00  1.2590E+07  1.5275E+07  0.0000E+00

      CONNECTED LAKE   TIME-STEP         STAGE-CHANGE          PERCENT
 LAKE    INFLUX      SURFACE AREA   TIME STEP  CUMULATIVE    DISCREPANCY
   1   0.0000E+00     6.2500E+06   3.2189E-04 -1.2976E+01       0.000
   2   0.0000E+00     6.2500E+06   7.2320E-04 -1.8045E+01       0.000
 --------------------------------------------------------------------------------



            CUMULATIVE HYDROLOGIC BUDGET SUMMARIES FOR SIMULATED LAKES
     (ALL FLUID FLUXES ARE SUMS OF VOLUMES ADDED TO THE LAKE SINCE INITIAL TIME)
     ---------------------------------------------------------------------------
 LAKE       PRECIP       EVAP       RUNOFF
   1     5.6771E+07  5.0408E+07  0.0000E+00
   2     5.6771E+07  5.0408E+07  0.0000E+00

            GROUND WATER            SURFACE WATER
 LAKE    INFLOW     OUTFLOW      INFLOW     OUTFLOW
   1  1.5598E+08  1.5644E+06  7.5013E+08  9.9201E+08
   2  1.7789E+08  1.4259E+06  1.0935E+09  1.3891E+09

         WATER    CONNECTED LAKE   CHANGE       PERCENT
 LAKE     USE         INFLUX       IN VOL.    DISCREPANCY
   1   0.0000E+00   0.0000E+00  -8.1099E+07      0.000
   2   0.0000E+00   0.0000E+00  -1.1278E+08      0.000
 --------------------------------------------------------------------------------

 
 SOLVING FOR HEAD 
     4 ITERATIONS FOR TIME STEP 129 IN STRESS PERIOD    1

 HEAD/DRAWDOWN PRINTOUT FLAG = 0     TOTAL BUDGET PRINTOUT FLAG = 0
 CELL-BY-CELL FLOW TERM FLAG = 1

 OUTPUT FLAGS FOR ALL LAYERS ARE THE SAME:
   HEAD    DRAWDOWN  HEAD  DRAWDOWN
 PRINTOUT  PRINTOUT  SAVE    SAVE
 ----------------------------------
     0         0       0       0



 STREAM LISTING     PERIOD      1   STEP      129

 LAYER ROW COL. STREAM  RCH.  FLOW INTO     FLOW TO   FLOW OUT OF   OVRLND.     DIRECT     STREAM       STREAM     STREAM     STREAM   STREAMBED  STREAMBED
                SEG.NO.  NO.  STRM. RCH.    AQUIFER    STRM. RCH.    RUNOFF     PRECIP       ET          HEAD       DEPTH      WIDTH   CONDCTNC.   GRADIENT

   1    2    5     1     1    6.9120E+05 -7.9996E+04   7.7120E+05  0.000E+00  0.000E+00  0.000E+00  1.25330E+02  1.382E+00  5.000E+00  5.000E+03 -3.200E+01
   1    3    5     1     2    7.7120E+05 -5.6260E+04   8.2746E+05  0.000E+00  0.000E+00  0.000E+00  1.24303E+02  1.458E+00  5.000E+00  5.000E+03 -2.250E+01
   1    4    5     1     3    8.2746E+05 -5.3139E+04   8.8059E+05  0.000E+00  0.000E+00  0.000E+00  1.23258E+02  1.517E+00  5.000E+00  5.000E+03 -2.126E+01
   1    4    6     1     4    8.8059E+05 -4.3419E+04   9.2401E+05  0.000E+00  0.000E+00  0.000E+00  1.22206E+02  1.568E+00  5.000E+00  5.000E+03 -1.737E+01
   1    4    7     1     5    9.2401E+05 -2.1148E+04   9.4516E+05  0.000E+00  0.000E+00  0.000E+00  1.21411E+02  1.601E+00  5.000E+00  2.500E+03 -1.692E+01
   1    4    8     1     6    9.4516E+05 -3.4737E+04   9.7990E+05  0.000E+00  0.000E+00  0.000E+00  1.20750E+02  1.630E+00  5.000E+00  3.750E+03 -1.853E+01
   1    5    8     1     7    9.7990E+05 -3.6579E+04   1.0165E+06  0.000E+00  0.000E+00  0.000E+00  1.19821E+02  1.666E+00  5.000E+00  5.000E+03 -1.463E+01
   1    6    8     1     8    1.0165E+06 -2.5164E+04   1.0416E+06  0.000E+00  0.000E+00  0.000E+00  1.18748E+02  1.696E+00  5.000E+00  5.000E+03 -1.007E+01
   1   12    9     2     1    1.3422E+06 -2.6873E+04   1.3691E+06  0.000E+00  0.000E+00  0.000E+00  1.16627E+02  2.187E+00  5.000E+00  5.000E+03 -1.075E+01
   1   13    9     2     2    1.3691E+06 -4.2225E+04   1.4113E+06  0.000E+00  0.000E+00  0.000E+00  1.15840E+02  2.221E+00  5.000E+00  5.000E+03 -1.689E+01
   1   14   10     2     3    1.4113E+06 -2.2796E+04   1.4341E+06  0.000E+00  0.000E+00  0.000E+00  1.15231E+02  2.252E+00  5.000E+00  2.795E+03 -1.631E+01
   1   14   10     2     4    1.4341E+06 -2.4016E+04   1.4581E+06  0.000E+00  0.000E+00  0.000E+00  1.14794E+02  2.274E+00  5.000E+00  2.795E+03 -1.719E+01
   1   15   10     2     5    1.4581E+06 -4.0322E+04   1.4985E+06  0.000E+00  0.000E+00  0.000E+00  1.14185E+02  2.304E+00  5.000E+00  5.000E+03 -1.613E+01
   1   16   10     2     6    1.4985E+06 -2.6972E+04   1.5254E+06  0.000E+00  0.000E+00  0.000E+00  1.13396E+02  2.335E+00  5.000E+00  5.000E+03 -1.079E+01
   1   22   10     3     1    1.8510E+06 -2.7612E+04   1.8786E+06  0.000E+00  0.000E+00  0.000E+00  1.11494E+02  2.538E+00  5.000E+00  5.000E+03 -1.104E+01
   1   23   10     3     2    1.8786E+06 -3.9846E+04   1.9184E+06  0.000E+00  0.000E+00  0.000E+00  1.10694E+02  2.565E+00  5.000E+00  3.750E+03 -2.125E+01
   1   23   11     3     3    1.9184E+06 -2.3631E+04   1.9421E+06  0.000E+00  0.000E+00  0.000E+00  1.10128E+02  2.591E+00  5.000E+00  2.500E+03 -1.890E+01
   1   23   12     3     4    1.9421E+06 -4.6907E+04   1.9890E+06  0.000E+00  0.000E+00  0.000E+00  1.09447E+02  2.619E+00  5.000E+00  5.000E+03 -1.876E+01
   1   23   13     3     5    1.9890E+06 -5.0560E+04   2.0395E+06  0.000E+00  0.000E+00  0.000E+00  1.08540E+02  2.658E+00  5.000E+00  5.000E+03 -2.022E+01
   1   23   14     3     6    2.0395E+06 -5.4329E+04   2.0939E+06  0.000E+00  0.000E+00  0.000E+00  1.07635E+02  2.700E+00  5.000E+00  5.000E+03 -2.173E+01
   1   23   15     3     7    2.0939E+06 -6.1740E+04   2.1556E+06  0.000E+00  0.000E+00  0.000E+00  1.06735E+02  2.745E+00  5.000E+00  5.000E+03 -2.470E+01
   1   23   16     3     8    2.1556E+06 -8.9995E+04   2.2456E+06  0.000E+00  0.000E+00  0.000E+00  1.05847E+02  2.803E+00  5.000E+00  5.000E+03 -3.600E+01





     0  LAKE CELLS ARE DRY.

 PERIOD     1     TIME STEP   129     TIME STEP LENGTH  8.2973E+00
 PERIOD TIME  7.9134E+02     TOTAL SIMULATION TIME  7.9134E+02


                 HYDROLOGIC BUDGET SUMMARIES FOR SIMULATED LAKES
     (ALL FLUID FLUXES ARE VOLUMES ADDED TO THE LAKE DURING PRESENT TIME STEP)
     -------------------------------------------------------------------------
 LAKE    STAGE         VOLUME     VOL.CHANGE      PRECIP     EVAPORATION        RUNOFF
   1   117.0243     8.5151E+07    1.9280E+03    6.0155E+05    5.3414E+05    0.0000E+00
   2   111.9554     5.3471E+07    4.2080E+03    6.0155E+05    5.3414E+05    0.0000E+00

            GROUND WATER            SURFACE WATER        WATER
 LAKE    INFLOW     OUTFLOW      INFLOW     OUTFLOW       USE
   1  2.4285E+06  0.0000E+00  8.6428E+06  1.1137E+07  0.0000E+00
   2  2.6380E+06  0.0000E+00  1.2657E+07  1.5358E+07  0.0000E+00

      CONNECTED LAKE   TIME-STEP         STAGE-CHANGE          PERCENT
 LAKE    INFLUX      SURFACE AREA   TIME STEP  CUMULATIVE    DISCREPANCY
   1   0.0000E+00     6.2500E+06   3.0815E-04 -1.2976E+01       0.000
   2   0.0000E+00     6.2500E+06   6.7313E-04 -1.8045E+01       0.000
 --------------------------------------------------------------------------------



            CUMULATIVE HYDROLOGIC BUDGET SUMMARIES FOR SIMULATED LAKES
     (ALL FLUID FLUXES ARE SUMS OF VOLUMES ADDED TO THE LAKE SINCE INITIAL TIME)
     ---------------------------------------------------------------------------
 LAKE       PRECIP       EVAP       RUNOFF
   1     5.7372E+07  5.0942E+07  0.0000E+00
   2     5.7372E+07  5.0942E+07  0.0000E+00

            GROUND WATER            SURFACE WATER
 LAKE    INFLOW     OUTFLOW      INFLOW     OUTFLOW
   1  1.5841E+08  1.5644E+06  7.5877E+08  1.0031E+09
   2  1.8053E+08  1.4259E+06  1.1062E+09  1.4045E+09

         WATER    CONNECTED LAKE   CHANGE       PERCENT
 LAKE     USE         INFLUX       IN VOL.    DISCREPANCY
   1   0.0000E+00   0.0000E+00  -8.1098E+07      0.000
   2   0.0000E+00   0.0000E+00  -1.1278E+08      0.000
 --------------------------------------------------------------------------------

 
 SOLVING FOR HEAD 
     4 ITERATIONS FOR TIME STEP 130 IN STRESS PERIOD    1

 HEAD/DRAWDOWN PRINTOUT FLAG = 1     TOTAL BUDGET PRINTOUT FLAG = 1
 CELL-BY-CELL FLOW TERM FLAG = 1

 OUTPUT FLAGS FOR EACH LAYER:
          HEAD    DRAWDOWN  HEAD  DRAWDOWN
 LAYER  PRINTOUT  PRINTOUT  SAVE    SAVE
 -----------------------------------------
    1       0         0       0       0
    2       0         0       0       0
    3       0         0       0       0
    4       0         0       0       0
    5       1         0       0       0



 STREAM LISTING     PERIOD      1   STEP      130

 LAYER ROW COL. STREAM  RCH.  FLOW INTO     FLOW TO   FLOW OUT OF   OVRLND.     DIRECT     STREAM       STREAM     STREAM     STREAM   STREAMBED  STREAMBED
                SEG.NO.  NO.  STRM. RCH.    AQUIFER    STRM. RCH.    RUNOFF     PRECIP       ET          HEAD       DEPTH      WIDTH   CONDCTNC.   GRADIENT

   1    2    5     1     1    6.9120E+05 -7.9998E+04   7.7120E+05  0.000E+00  0.000E+00  0.000E+00  1.25330E+02  1.382E+00  5.000E+00  5.000E+03 -3.200E+01
   1    3    5     1     2    7.7120E+05 -5.6266E+04   8.2746E+05  0.000E+00  0.000E+00  0.000E+00  1.24303E+02  1.458E+00  5.000E+00  5.000E+03 -2.251E+01
   1    4    5     1     3    8.2746E+05 -5.3153E+04   8.8062E+05  0.000E+00  0.000E+00  0.000E+00  1.23258E+02  1.517E+00  5.000E+00  5.000E+03 -2.126E+01
   1    4    6     1     4    8.8062E+05 -4.3431E+04   9.2405E+05  0.000E+00  0.000E+00  0.000E+00  1.22206E+02  1.568E+00  5.000E+00  5.000E+03 -1.737E+01
   1    4    7     1     5    9.2405E+05 -2.1154E+04   9.4520E+05  0.000E+00  0.000E+00  0.000E+00  1.21412E+02  1.601E+00  5.000E+00  2.500E+03 -1.692E+01
   1    4    8     1     6    9.4520E+05 -3.4746E+04   9.7995E+05  0.000E+00  0.000E+00  0.000E+00  1.20750E+02  1.630E+00  5.000E+00  3.750E+03 -1.853E+01
   1    5    8     1     7    9.7995E+05 -3.6595E+04   1.0165E+06  0.000E+00  0.000E+00  0.000E+00  1.19821E+02  1.666E+00  5.000E+00  5.000E+03 -1.464E+01
   1    6    8     1     8    1.0165E+06 -2.5177E+04   1.0417E+06  0.000E+00  0.000E+00  0.000E+00  1.18748E+02  1.696E+00  5.000E+00  5.000E+03 -1.007E+01
   1   12    9     2     1    1.3425E+06 -2.6897E+04   1.3694E+06  0.000E+00  0.000E+00  0.000E+00  1.16627E+02  2.188E+00  5.000E+00  5.000E+03 -1.076E+01
   1   13    9     2     2    1.3694E+06 -4.2270E+04   1.4117E+06  0.000E+00  0.000E+00  0.000E+00  1.15840E+02  2.221E+00  5.000E+00  5.000E+03 -1.691E+01
   1   14   10     2     3    1.4117E+06 -2.2820E+04   1.4345E+06  0.000E+00  0.000E+00  0.000E+00  1.15231E+02  2.252E+00  5.000E+00  2.795E+03 -1.633E+01
   1   14   10     2     4    1.4345E+06 -2.4040E+04   1.4586E+06  0.000E+00  0.000E+00  0.000E+00  1.14795E+02  2.274E+00  5.000E+00  2.795E+03 -1.720E+01
   1   15   10     2     5    1.4586E+06 -4.0365E+04   1.4989E+06  0.000E+00  0.000E+00  0.000E+00  1.14185E+02  2.304E+00  5.000E+00  5.000E+03 -1.615E+01
   1   16   10     2     6    1.4989E+06 -2.6998E+04   1.5259E+06  0.000E+00  0.000E+00  0.000E+00  1.13396E+02  2.336E+00  5.000E+00  5.000E+03 -1.080E+01
   1   22   10     3     1    1.8518E+06 -2.7626E+04   1.8794E+06  0.000E+00  0.000E+00  0.000E+00  1.11494E+02  2.539E+00  5.000E+00  5.000E+03 -1.105E+01
   1   23   10     3     2    1.8794E+06 -3.9862E+04   1.9193E+06  0.000E+00  0.000E+00  0.000E+00  1.10694E+02  2.566E+00  5.000E+00  3.750E+03 -2.126E+01
   1   23   11     3     3    1.9193E+06 -2.3639E+04   1.9429E+06  0.000E+00  0.000E+00  0.000E+00  1.10129E+02  2.592E+00  5.000E+00  2.500E+03 -1.891E+01
   1   23   12     3     4    1.9429E+06 -4.6922E+04   1.9898E+06  0.000E+00  0.000E+00  0.000E+00  1.09448E+02  2.620E+00  5.000E+00  5.000E+03 -1.877E+01
   1   23   13     3     5    1.9898E+06 -5.0574E+04   2.0404E+06  0.000E+00  0.000E+00  0.000E+00  1.08541E+02  2.659E+00  5.000E+00  5.000E+03 -2.023E+01
   1   23   14     3     6    2.0404E+06 -5.4340E+04   2.0947E+06  0.000E+00  0.000E+00  0.000E+00  1.07636E+02  2.700E+00  5.000E+00  5.000E+03 -2.174E+01
   1   23   15     3     7    2.0947E+06 -6.1747E+04   2.1565E+06  0.000E+00  0.000E+00  0.000E+00  1.06736E+02  2.745E+00  5.000E+00  5.000E+03 -2.470E+01
   1   23   16     3     8    2.1565E+06 -8.9997E+04   2.2465E+06  0.000E+00  0.000E+00  0.000E+00  1.05848E+02  2.804E+00  5.000E+00  5.000E+03 -3.600E+01





     0  LAKE CELLS ARE DRY.

 PERIOD     1     TIME STEP   130     TIME STEP LENGTH  8.3388E+00
 PERIOD TIME  7.9968E+02     TOTAL SIMULATION TIME  7.9968E+02


                 HYDROLOGIC BUDGET SUMMARIES FOR SIMULATED LAKES
     (ALL FLUID FLUXES ARE VOLUMES ADDED TO THE LAKE DURING PRESENT TIME STEP)
     -------------------------------------------------------------------------
 LAKE    STAGE         VOLUME     VOL.CHANGE      PRECIP     EVAPORATION        RUNOFF
   1   117.0246     8.5153E+07    1.8240E+03    6.0456E+05    5.3681E+05    0.0000E+00
   2   111.9561     5.3475E+07    3.9640E+03    6.0456E+05    5.3681E+05    0.0000E+00

            GROUND WATER            SURFACE WATER        WATER
 LAKE    INFLOW     OUTFLOW      INFLOW     OUTFLOW       USE
   1  2.4424E+06  0.0000E+00  8.6867E+06  1.1195E+07  0.0000E+00
   2  2.6534E+06  0.0000E+00  1.2724E+07  1.5441E+07  0.0000E+00

      CONNECTED LAKE   TIME-STEP         STAGE-CHANGE          PERCENT
 LAKE    INFLUX      SURFACE AREA   TIME STEP  CUMULATIVE    DISCREPANCY
   1   0.0000E+00     6.2500E+06   2.9160E-04 -1.2975E+01       0.000
   2   0.0000E+00     6.2500E+06   6.3463E-04 -1.8044E+01       0.000
 --------------------------------------------------------------------------------



            CUMULATIVE HYDROLOGIC BUDGET SUMMARIES FOR SIMULATED LAKES
     (ALL FLUID FLUXES ARE SUMS OF VOLUMES ADDED TO THE LAKE SINCE INITIAL TIME)
     ---------------------------------------------------------------------------
 LAKE       PRECIP       EVAP       RUNOFF
   1     5.7977E+07  5.1479E+07  0.0000E+00
   2     5.7977E+07  5.1479E+07  0.0000E+00

            GROUND WATER            SURFACE WATER
 LAKE    INFLOW     OUTFLOW      INFLOW     OUTFLOW
   1  1.6085E+08  1.5644E+06  7.6746E+08  1.0143E+09
   2  1.8318E+08  1.4259E+06  1.1189E+09  1.4199E+09

         WATER    CONNECTED LAKE   CHANGE       PERCENT
 LAKE     USE         INFLUX       IN VOL.    DISCREPANCY
   1   0.0000E+00   0.0000E+00  -8.1096E+07      0.000
   2   0.0000E+00   0.0000E+00  -1.1277E+08      0.000
 --------------------------------------------------------------------------------

1
              HEAD IN LAYER   5 AT END OF TIME STEP 130 IN STRESS PERIOD    1
  ---------------------------------------------------------------------------

          1      2      3      4      5      6      7      8      9     10
 .........................................................................
   1   160.0  158.9  157.3  155.8  154.2  152.7  151.5  150.8  150.0  149.2
   2   160.0  158.2  155.3  151.1  141.4  146.7  147.2  147.1  146.9  146.6
   3   160.0  157.5  153.5  147.6  135.6  139.9  140.8  141.3  142.1  142.7
   4   160.0  157.3  152.9  146.7  133.9  130.9  129.9  130.0  135.3  138.1
   5   160.0  157.3  153.2  148.3  141.7  136.1  131.2  127.2  131.5  134.4
   6   160.0  157.4  153.5  149.1  143.6  136.1  128.3  123.8  126.0  128.1
   7   160.0  157.4  153.6  149.4  143.5  133.4  117.9  117.3  117.3  117.4
   8   160.0  157.5  153.7  149.5  143.5  132.7  117.5  117.0  117.0  117.1
   9   160.0  157.5  153.8  149.6  143.6  132.6  117.5  117.0  117.0  117.0
  10   160.0  157.5  153.9  149.8  143.9  133.1  117.6  117.1  117.0  117.0
  11   160.0  157.5  154.0  150.0  144.5  134.5  118.0  117.3  117.2  117.3
  12   160.0  157.6  154.1  150.4  145.6  138.4  130.6  126.3  122.0  124.9
  13   160.0  157.6  154.3  150.8  146.7  141.2  135.5  130.7  124.3  127.6
  14   160.0  157.6  154.3  150.9  147.0  142.1  137.2  133.3  128.7  123.4
  15   160.0  157.6  154.2  150.7  146.5  141.0  135.8  131.9  127.6  122.3
  16   160.0  157.6  154.1  150.2  145.2  137.5  129.2  125.3  122.1  118.8
  17   160.0  157.6  154.0  149.9  143.9  132.5  113.1  112.4  112.3  112.2
  18   160.0  157.5  153.9  149.7  143.4  130.9  112.6  112.0  112.0  112.0
  19   160.0  157.6  153.9  149.7  143.3  130.5  112.5  112.0  112.0  112.0
  20   160.0  157.6  154.0  149.9  143.6  131.1  112.6  112.0  112.0  112.0
  21   160.0  157.6  154.1  150.1  144.3  132.9  113.1  112.4  112.3  112.1
  22   160.0  157.7  154.4  150.8  146.0  138.5  130.2  126.0  122.0  117.0
  23   160.0  157.8  154.8  151.8  148.1  143.4  138.7  134.9  129.7  121.4
  24   160.0  158.0  155.3  152.7  149.9  146.6  143.8  141.7  139.4  137.2
  25   160.0  158.2  155.8  153.6  151.4  149.0  147.1  145.8  144.5  143.2
  26   160.0  158.5  156.6  154.8  153.0  151.1  149.7  148.8  147.9  147.0
  27   160.0  158.9  157.3  155.8  154.2  152.7  151.5  150.8  150.0  149.2
1
              HEAD IN LAYER   5 AT END OF TIME STEP 130 IN STRESS PERIOD    1
  ---------------------------------------------------------------------------

         11     12     13     14     15     16     17
 ....................................................
   1   148.5  147.3  145.8  144.2  142.7  141.1  140.0
   2   146.2  145.5  144.4  143.1  141.8  140.5  140.0
   3   143.1  143.2  142.7  141.9  140.9  140.1  140.0
   4   139.7  141.0  141.3  141.0  140.4  139.9  140.0
   5   136.4  138.6  139.9  140.2  140.0  139.8  140.0
   6   130.3  135.1  138.3  139.4  139.6  139.6  140.0
   7   117.9  131.1  137.0  138.9  139.4  139.6  140.0
   8   117.4  129.8  136.5  138.7  139.3  139.5  140.0
   9   117.4  129.4  136.2  138.5  139.2  139.5  140.0
  10   117.4  129.5  136.2  138.5  139.2  139.5  140.0
  11   117.8  130.4  136.4  138.5  139.2  139.5  140.0
  12   127.8  133.3  137.1  138.7  139.2  139.5  140.0
  13   130.8  134.9  137.7  138.8  139.2  139.5  140.0
  14   129.1  134.5  137.5  138.8  139.2  139.5  140.0
  15   127.5  133.3  136.9  138.4  139.0  139.4  140.0
  16   123.4  130.6  135.7  137.8  138.6  139.3  140.0
  17   112.8  126.9  134.4  137.0  138.2  139.1  140.0
  18   112.4  125.5  133.5  136.5  137.8  138.9  140.0
  19   112.4  124.7  132.7  135.7  137.2  138.6  140.0
  20   112.4  124.2  131.8  134.7  136.3  138.1  140.0
  21   112.6  123.9  130.6  133.3  134.8  137.2  140.0
  22   119.6  124.0  127.9  129.8  131.4  134.8  140.0
  23   119.6  118.9  118.7  118.5  119.1  123.9  140.0
  24   135.6  134.1  132.9  132.2  132.5  135.2  140.0
  25   142.1  140.7  139.3  138.3  137.8  138.5  140.0
  26   146.1  144.9  143.4  142.0  140.8  140.1  140.0
  27   148.5  147.3  145.8  144.2  142.7  141.1  140.0
1
  VOLUMETRIC BUDGET FOR ENTIRE MODEL AT END OF TIME STEP130 IN STRESS PERIOD   1
  ------------------------------------------------------------------------------

     CUMULATIVE VOLUMES      L**3       RATES FOR THIS TIME STEP      L**3/T
     ------------------                 ------------------------

           IN:                                      IN:
           ---                                      ---
             STORAGE =     2934567.7500               STORAGE =           0.0000
       CONSTANT HEAD =   928042496.0000         CONSTANT HEAD =      548214.9375
                  ET =           0.0000                    ET =           0.0000
            RECHARGE =  2203110912.0000              RECHARGE =     2755000.0000
     SPECIFIED FLOWS =           0.0000       SPECIFIED FLOWS =           0.0000
      STREAM LEAKAGE =     3694574.2500        STREAM LEAKAGE =           0.0000
       LAKE  SEEPAGE =     2990331.7500         LAKE  SEEPAGE =           0.0000

            TOTAL IN =  3140772864.0000              TOTAL IN =     3303215.0000

          OUT:                                     OUT:
          ----                                     ----
             STORAGE =  1266380544.0000               STORAGE =       41537.7109
       CONSTANT HEAD =     1029476.1875         CONSTANT HEAD =        2675.6531
                  ET =   933583424.0000                    ET =     1719244.1250
            RECHARGE =           0.0000              RECHARGE =           0.0000
     SPECIFIED FLOWS =           0.0000       SPECIFIED FLOWS =           0.0000
      STREAM LEAKAGE =   595739008.0000        STREAM LEAKAGE =      928619.6875
       LAKE  SEEPAGE =   344035616.0000         LAKE  SEEPAGE =      611096.0625

           TOTAL OUT =  3140768000.0000             TOTAL OUT =     3303173.2500

            IN - OUT =        4864.0000              IN - OUT =          41.7500

 PERCENT DISCREPANCY =           0.00     PERCENT DISCREPANCY =           0.00






          TIME SUMMARY AT END OF TIME STEP 130 IN STRESS PERIOD    1
                    SECONDS     MINUTES      HOURS       DAYS        YEARS
                    -----------------------------------------------------------
   TIME STEP LENGTH 7.20470E+05  12008.      200.13      8.3388     2.28303E-02
 STRESS PERIOD TIME 6.90921E+07 1.15154E+06  19192.      799.68      2.1894    
         TOTAL TIME 6.90921E+07 1.15154E+06  19192.      799.68      2.1894    
1
 
 SOLVING FOR HEAD 
     4 ITERATIONS FOR TIME STEP 131 IN STRESS PERIOD    1

 HEAD/DRAWDOWN PRINTOUT FLAG = 0     TOTAL BUDGET PRINTOUT FLAG = 0
 CELL-BY-CELL FLOW TERM FLAG = 1

 OUTPUT FLAGS FOR ALL LAYERS ARE THE SAME:
   HEAD    DRAWDOWN  HEAD  DRAWDOWN
 PRINTOUT  PRINTOUT  SAVE    SAVE
 ----------------------------------
     0         0       0       0



 STREAM LISTING     PERIOD      1   STEP      131

 LAYER ROW COL. STREAM  RCH.  FLOW INTO     FLOW TO   FLOW OUT OF   OVRLND.     DIRECT     STREAM       STREAM     STREAM     STREAM   STREAMBED  STREAMBED
                SEG.NO.  NO.  STRM. RCH.    AQUIFER    STRM. RCH.    RUNOFF     PRECIP       ET          HEAD       DEPTH      WIDTH   CONDCTNC.   GRADIENT

   1    2    5     1     1    6.9120E+05 -8.0000E+04   7.7120E+05  0.000E+00  0.000E+00  0.000E+00  1.25330E+02  1.382E+00  5.000E+00  5.000E+03 -3.200E+01
   1    3    5     1     2    7.7120E+05 -5.6272E+04   8.2747E+05  0.000E+00  0.000E+00  0.000E+00  1.24303E+02  1.458E+00  5.000E+00  5.000E+03 -2.251E+01
   1    4    5     1     3    8.2747E+05 -5.3166E+04   8.8064E+05  0.000E+00  0.000E+00  0.000E+00  1.23258E+02  1.517E+00  5.000E+00  5.000E+03 -2.127E+01
   1    4    6     1     4    8.8064E+05 -4.3443E+04   9.2408E+05  0.000E+00  0.000E+00  0.000E+00  1.22206E+02  1.568E+00  5.000E+00  5.000E+03 -1.738E+01
   1    4    7     1     5    9.2408E+05 -2.1159E+04   9.4524E+05  0.000E+00  0.000E+00  0.000E+00  1.21412E+02  1.601E+00  5.000E+00  2.500E+03 -1.693E+01
   1    4    8     1     6    9.4524E+05 -3.4754E+04   9.8000E+05  0.000E+00  0.000E+00  0.000E+00  1.20750E+02  1.630E+00  5.000E+00  3.750E+03 -1.854E+01
   1    5    8     1     7    9.8000E+05 -3.6609E+04   1.0166E+06  0.000E+00  0.000E+00  0.000E+00  1.19821E+02  1.666E+00  5.000E+00  5.000E+03 -1.464E+01
   1    6    8     1     8    1.0166E+06 -2.5189E+04   1.0418E+06  0.000E+00  0.000E+00  0.000E+00  1.18748E+02  1.697E+00  5.000E+00  5.000E+03 -1.008E+01
   1   12    9     2     1    1.3428E+06 -2.6921E+04   1.3697E+06  0.000E+00  0.000E+00  0.000E+00  1.16628E+02  2.188E+00  5.000E+00  5.000E+03 -1.077E+01
   1   13    9     2     2    1.3697E+06 -4.2312E+04   1.4120E+06  0.000E+00  0.000E+00  0.000E+00  1.15840E+02  2.221E+00  5.000E+00  5.000E+03 -1.692E+01
   1   14   10     2     3    1.4120E+06 -2.2843E+04   1.4349E+06  0.000E+00  0.000E+00  0.000E+00  1.15232E+02  2.252E+00  5.000E+00  2.795E+03 -1.635E+01
   1   14   10     2     4    1.4349E+06 -2.4063E+04   1.4589E+06  0.000E+00  0.000E+00  0.000E+00  1.14795E+02  2.275E+00  5.000E+00  2.795E+03 -1.722E+01
   1   15   10     2     5    1.4589E+06 -4.0405E+04   1.4994E+06  0.000E+00  0.000E+00  0.000E+00  1.14186E+02  2.305E+00  5.000E+00  5.000E+03 -1.616E+01
   1   16   10     2     6    1.4994E+06 -2.7024E+04   1.5264E+06  0.000E+00  0.000E+00  0.000E+00  1.13397E+02  2.336E+00  5.000E+00  5.000E+03 -1.081E+01
   1   22   10     3     1    1.8525E+06 -2.7639E+04   1.8801E+06  0.000E+00  0.000E+00  0.000E+00  1.11495E+02  2.539E+00  5.000E+00  5.000E+03 -1.106E+01
   1   23   10     3     2    1.8801E+06 -3.9877E+04   1.9200E+06  0.000E+00  0.000E+00  0.000E+00  1.10695E+02  2.567E+00  5.000E+00  3.750E+03 -2.127E+01
   1   23   11     3     3    1.9200E+06 -2.3647E+04   1.9437E+06  0.000E+00  0.000E+00  0.000E+00  1.10129E+02  2.592E+00  5.000E+00  2.500E+03 -1.892E+01
   1   23   12     3     4    1.9437E+06 -4.6937E+04   1.9906E+06  0.000E+00  0.000E+00  0.000E+00  1.09448E+02  2.621E+00  5.000E+00  5.000E+03 -1.877E+01
   1   23   13     3     5    1.9906E+06 -5.0588E+04   2.0412E+06  0.000E+00  0.000E+00  0.000E+00  1.08541E+02  2.660E+00  5.000E+00  5.000E+03 -2.024E+01
   1   23   14     3     6    2.0412E+06 -5.4351E+04   2.0955E+06  0.000E+00  0.000E+00  0.000E+00  1.07637E+02  2.701E+00  5.000E+00  5.000E+03 -2.174E+01
   1   23   15     3     7    2.0955E+06 -6.1754E+04   2.1573E+06  0.000E+00  0.000E+00  0.000E+00  1.06736E+02  2.746E+00  5.000E+00  5.000E+03 -2.470E+01
   1   23   16     3     8    2.1573E+06 -8.9999E+04   2.2473E+06  0.000E+00  0.000E+00  0.000E+00  1.05849E+02  2.804E+00  5.000E+00  5.000E+03 -3.600E+01





     0  LAKE CELLS ARE DRY.

 PERIOD     1     TIME STEP   131     TIME STEP LENGTH  8.3805E+00
 PERIOD TIME  8.0806E+02     TOTAL SIMULATION TIME  8.0806E+02


                 HYDROLOGIC BUDGET SUMMARIES FOR SIMULATED LAKES
     (ALL FLUID FLUXES ARE VOLUMES ADDED TO THE LAKE DURING PRESENT TIME STEP)
     -------------------------------------------------------------------------
 LAKE    STAGE         VOLUME     VOL.CHANGE      PRECIP     EVAPORATION        RUNOFF
   1   117.0248     8.5154E+07    1.7200E+03    6.0758E+05    5.3949E+05    0.0000E+00
   2   111.9567     5.3478E+07    3.7320E+03    6.0758E+05    5.3949E+05    0.0000E+00

            GROUND WATER            SURFACE WATER        WATER
 LAKE    INFLOW     OUTFLOW      INFLOW     OUTFLOW       USE
   1  2.4563E+06  0.0000E+00  8.7307E+06  1.1253E+07  0.0000E+00
   2  2.6687E+06  0.0000E+00  1.2792E+07  1.5525E+07  0.0000E+00

      CONNECTED LAKE   TIME-STEP         STAGE-CHANGE          PERCENT
 LAKE    INFLUX      SURFACE AREA   TIME STEP  CUMULATIVE    DISCREPANCY
   1   0.0000E+00     6.2500E+06   2.7529E-04 -1.2975E+01       0.000
   2   0.0000E+00     6.2500E+06   5.9699E-04 -1.8043E+01       0.000
 --------------------------------------------------------------------------------



            CUMULATIVE HYDROLOGIC BUDGET SUMMARIES FOR SIMULATED LAKES
     (ALL FLUID FLUXES ARE SUMS OF VOLUMES ADDED TO THE LAKE SINCE INITIAL TIME)
     ---------------------------------------------------------------------------
 LAKE       PRECIP       EVAP       RUNOFF
   1     5.8584E+07  5.2019E+07  0.0000E+00
   2     5.8584E+07  5.2019E+07  0.0000E+00

            GROUND WATER            SURFACE WATER
 LAKE    INFLOW     OUTFLOW      INFLOW     OUTFLOW
   1  1.6331E+08  1.5644E+06  7.7619E+08  1.0256E+09
   2  1.8585E+08  1.4259E+06  1.1317E+09  1.4355E+09

         WATER    CONNECTED LAKE   CHANGE       PERCENT
 LAKE     USE         INFLUX       IN VOL.    DISCREPANCY
   1   0.0000E+00   0.0000E+00  -8.1094E+07      0.000
   2   0.0000E+00   0.0000E+00  -1.1277E+08      0.000
 --------------------------------------------------------------------------------

 
 SOLVING FOR HEAD 
     4 ITERATIONS FOR TIME STEP 132 IN STRESS PERIOD    1

 HEAD/DRAWDOWN PRINTOUT FLAG = 0     TOTAL BUDGET PRINTOUT FLAG = 0
 CELL-BY-CELL FLOW TERM FLAG = 1

 OUTPUT FLAGS FOR ALL LAYERS ARE THE SAME:
   HEAD    DRAWDOWN  HEAD  DRAWDOWN
 PRINTOUT  PRINTOUT  SAVE    SAVE
 ----------------------------------
     0         0       0       0



 STREAM LISTING     PERIOD      1   STEP      132

 LAYER ROW COL. STREAM  RCH.  FLOW INTO     FLOW TO   FLOW OUT OF   OVRLND.     DIRECT     STREAM       STREAM     STREAM     STREAM   STREAMBED  STREAMBED
                SEG.NO.  NO.  STRM. RCH.    AQUIFER    STRM. RCH.    RUNOFF     PRECIP       ET          HEAD       DEPTH      WIDTH   CONDCTNC.   GRADIENT

   1    2    5     1     1    6.9120E+05 -8.0002E+04   7.7120E+05  0.000E+00  0.000E+00  0.000E+00  1.25330E+02  1.382E+00  5.000E+00  5.000E+03 -3.200E+01
   1    3    5     1     2    7.7120E+05 -5.6278E+04   8.2748E+05  0.000E+00  0.000E+00  0.000E+00  1.24303E+02  1.458E+00  5.000E+00  5.000E+03 -2.251E+01
   1    4    5     1     3    8.2748E+05 -5.3179E+04   8.8066E+05  0.000E+00  0.000E+00  0.000E+00  1.23258E+02  1.517E+00  5.000E+00  5.000E+03 -2.127E+01
   1    4    6     1     4    8.8066E+05 -4.3455E+04   9.2411E+05  0.000E+00  0.000E+00  0.000E+00  1.22206E+02  1.568E+00  5.000E+00  5.000E+03 -1.738E+01
   1    4    7     1     5    9.2411E+05 -2.1164E+04   9.4528E+05  0.000E+00  0.000E+00  0.000E+00  1.21412E+02  1.601E+00  5.000E+00  2.500E+03 -1.693E+01
   1    4    8     1     6    9.4528E+05 -3.4762E+04   9.8004E+05  0.000E+00  0.000E+00  0.000E+00  1.20751E+02  1.630E+00  5.000E+00  3.750E+03 -1.854E+01
   1    5    8     1     7    9.8004E+05 -3.6623E+04   1.0167E+06  0.000E+00  0.000E+00  0.000E+00  1.19821E+02  1.666E+00  5.000E+00  5.000E+03 -1.465E+01
   1    6    8     1     8    1.0167E+06 -2.5201E+04   1.0419E+06  0.000E+00  0.000E+00  0.000E+00  1.18748E+02  1.697E+00  5.000E+00  5.000E+03 -1.008E+01
   1   12    9     2     1    1.3431E+06 -2.6943E+04   1.3700E+06  0.000E+00  0.000E+00  0.000E+00  1.16628E+02  2.188E+00  5.000E+00  5.000E+03 -1.078E+01
   1   13    9     2     2    1.3700E+06 -4.2353E+04   1.4124E+06  0.000E+00  0.000E+00  0.000E+00  1.15841E+02  2.222E+00  5.000E+00  5.000E+03 -1.694E+01
   1   14   10     2     3    1.4124E+06 -2.2865E+04   1.4352E+06  0.000E+00  0.000E+00  0.000E+00  1.15232E+02  2.253E+00  5.000E+00  2.795E+03 -1.636E+01
   1   14   10     2     4    1.4352E+06 -2.4085E+04   1.4593E+06  0.000E+00  0.000E+00  0.000E+00  1.14796E+02  2.275E+00  5.000E+00  2.795E+03 -1.723E+01
   1   15   10     2     5    1.4593E+06 -4.0443E+04   1.4998E+06  0.000E+00  0.000E+00  0.000E+00  1.14186E+02  2.305E+00  5.000E+00  5.000E+03 -1.618E+01
   1   16   10     2     6    1.4998E+06 -2.7048E+04   1.5268E+06  0.000E+00  0.000E+00  0.000E+00  1.13397E+02  2.337E+00  5.000E+00  5.000E+03 -1.082E+01
   1   22   10     3     1    1.8532E+06 -2.7652E+04   1.8808E+06  0.000E+00  0.000E+00  0.000E+00  1.11496E+02  2.540E+00  5.000E+00  5.000E+03 -1.106E+01
   1   23   10     3     2    1.8808E+06 -3.9892E+04   1.9207E+06  0.000E+00  0.000E+00  0.000E+00  1.10695E+02  2.567E+00  5.000E+00  3.750E+03 -2.128E+01
   1   23   11     3     3    1.9207E+06 -2.3655E+04   1.9444E+06  0.000E+00  0.000E+00  0.000E+00  1.10130E+02  2.593E+00  5.000E+00  2.500E+03 -1.892E+01
   1   23   12     3     4    1.9444E+06 -4.6950E+04   1.9913E+06  0.000E+00  0.000E+00  0.000E+00  1.09449E+02  2.621E+00  5.000E+00  5.000E+03 -1.878E+01
   1   23   13     3     5    1.9913E+06 -5.0601E+04   2.0419E+06  0.000E+00  0.000E+00  0.000E+00  1.08542E+02  2.660E+00  5.000E+00  5.000E+03 -2.024E+01
   1   23   14     3     6    2.0419E+06 -5.4361E+04   2.0963E+06  0.000E+00  0.000E+00  0.000E+00  1.07637E+02  2.701E+00  5.000E+00  5.000E+03 -2.174E+01
   1   23   15     3     7    2.0963E+06 -6.1760E+04   2.1581E+06  0.000E+00  0.000E+00  0.000E+00  1.06737E+02  2.747E+00  5.000E+00  5.000E+03 -2.470E+01
   1   23   16     3     8    2.1581E+06 -9.0000E+04   2.2481E+06  0.000E+00  0.000E+00  0.000E+00  1.05849E+02  2.805E+00  5.000E+00  5.000E+03 -3.600E+01





     0  LAKE CELLS ARE DRY.

 PERIOD     1     TIME STEP   132     TIME STEP LENGTH  8.4224E+00
 PERIOD TIME  8.1648E+02     TOTAL SIMULATION TIME  8.1648E+02


                 HYDROLOGIC BUDGET SUMMARIES FOR SIMULATED LAKES
     (ALL FLUID FLUXES ARE VOLUMES ADDED TO THE LAKE DURING PRESENT TIME STEP)
     -------------------------------------------------------------------------
 LAKE    STAGE         VOLUME     VOL.CHANGE      PRECIP     EVAPORATION        RUNOFF
   1   117.0251     8.5156E+07    1.6480E+03    6.1062E+05    5.4219E+05    0.0000E+00
   2   111.9572     5.3482E+07    3.5480E+03    6.1062E+05    5.4219E+05    0.0000E+00

            GROUND WATER            SURFACE WATER        WATER
 LAKE    INFLOW     OUTFLOW      INFLOW     OUTFLOW       USE
   1  2.4702E+06  0.0000E+00  8.7750E+06  1.1312E+07  0.0000E+00
   2  2.6840E+06  0.0000E+00  1.2859E+07  1.5608E+07  0.0000E+00

      CONNECTED LAKE   TIME-STEP         STAGE-CHANGE          PERCENT
 LAKE    INFLUX      SURFACE AREA   TIME STEP  CUMULATIVE    DISCREPANCY
   1   0.0000E+00     6.2500E+06   2.6315E-04 -1.2975E+01       0.000
   2   0.0000E+00     6.2500E+06   5.6785E-04 -1.8043E+01       0.000
 --------------------------------------------------------------------------------



            CUMULATIVE HYDROLOGIC BUDGET SUMMARIES FOR SIMULATED LAKES
     (ALL FLUID FLUXES ARE SUMS OF VOLUMES ADDED TO THE LAKE SINCE INITIAL TIME)
     ---------------------------------------------------------------------------
 LAKE       PRECIP       EVAP       RUNOFF
   1     5.9195E+07  5.2561E+07  0.0000E+00
   2     5.9195E+07  5.2561E+07  0.0000E+00

            GROUND WATER            SURFACE WATER
 LAKE    INFLOW     OUTFLOW      INFLOW     OUTFLOW
   1  1.6578E+08  1.5644E+06  7.8496E+08  1.0369E+09
   2  1.8854E+08  1.4259E+06  1.1446E+09  1.4511E+09

         WATER    CONNECTED LAKE   CHANGE       PERCENT
 LAKE     USE         INFLUX       IN VOL.    DISCREPANCY
   1   0.0000E+00   0.0000E+00  -8.1092E+07      0.000
   2   0.0000E+00   0.0000E+00  -1.1277E+08      0.000
 --------------------------------------------------------------------------------

 
 SOLVING FOR HEAD 
     4 ITERATIONS FOR TIME STEP 133 IN STRESS PERIOD    1

 HEAD/DRAWDOWN PRINTOUT FLAG = 0     TOTAL BUDGET PRINTOUT FLAG = 0
 CELL-BY-CELL FLOW TERM FLAG = 1

 OUTPUT FLAGS FOR ALL LAYERS ARE THE SAME:
   HEAD    DRAWDOWN  HEAD  DRAWDOWN
 PRINTOUT  PRINTOUT  SAVE    SAVE
 ----------------------------------
     0         0       0       0



 STREAM LISTING     PERIOD      1   STEP      133

 LAYER ROW COL. STREAM  RCH.  FLOW INTO     FLOW TO   FLOW OUT OF   OVRLND.     DIRECT     STREAM       STREAM     STREAM     STREAM   STREAMBED  STREAMBED
                SEG.NO.  NO.  STRM. RCH.    AQUIFER    STRM. RCH.    RUNOFF     PRECIP       ET          HEAD       DEPTH      WIDTH   CONDCTNC.   GRADIENT

   1    2    5     1     1    6.9120E+05 -8.0003E+04   7.7120E+05  0.000E+00  0.000E+00  0.000E+00  1.25330E+02  1.382E+00  5.000E+00  5.000E+03 -3.200E+01
   1    3    5     1     2    7.7120E+05 -5.6284E+04   8.2749E+05  0.000E+00  0.000E+00  0.000E+00  1.24303E+02  1.458E+00  5.000E+00  5.000E+03 -2.251E+01
   1    4    5     1     3    8.2749E+05 -5.3191E+04   8.8068E+05  0.000E+00  0.000E+00  0.000E+00  1.23258E+02  1.517E+00  5.000E+00  5.000E+03 -2.128E+01
   1    4    6     1     4    8.8068E+05 -4.3466E+04   9.2414E+05  0.000E+00  0.000E+00  0.000E+00  1.22206E+02  1.568E+00  5.000E+00  5.000E+03 -1.739E+01
   1    4    7     1     5    9.2414E+05 -2.1169E+04   9.4531E+05  0.000E+00  0.000E+00  0.000E+00  1.21412E+02  1.601E+00  5.000E+00  2.500E+03 -1.694E+01
   1    4    8     1     6    9.4531E+05 -3.4769E+04   9.8008E+05  0.000E+00  0.000E+00  0.000E+00  1.20751E+02  1.630E+00  5.000E+00  3.750E+03 -1.854E+01
   1    5    8     1     7    9.8008E+05 -3.6636E+04   1.0167E+06  0.000E+00  0.000E+00  0.000E+00  1.19821E+02  1.666E+00  5.000E+00  5.000E+03 -1.465E+01
   1    6    8     1     8    1.0167E+06 -2.5212E+04   1.0419E+06  0.000E+00  0.000E+00  0.000E+00  1.18748E+02  1.697E+00  5.000E+00  5.000E+03 -1.008E+01
   1   12    9     2     1    1.3433E+06 -2.6963E+04   1.3703E+06  0.000E+00  0.000E+00  0.000E+00  1.16628E+02  2.188E+00  5.000E+00  5.000E+03 -1.079E+01
   1   13    9     2     2    1.3703E+06 -4.2391E+04   1.4127E+06  0.000E+00  0.000E+00  0.000E+00  1.15841E+02  2.222E+00  5.000E+00  5.000E+03 -1.696E+01
   1   14   10     2     3    1.4127E+06 -2.2886E+04   1.4356E+06  0.000E+00  0.000E+00  0.000E+00  1.15232E+02  2.253E+00  5.000E+00  2.795E+03 -1.638E+01
   1   14   10     2     4    1.4356E+06 -2.4106E+04   1.4597E+06  0.000E+00  0.000E+00  0.000E+00  1.14796E+02  2.275E+00  5.000E+00  2.795E+03 -1.725E+01
   1   15   10     2     5    1.4597E+06 -4.0479E+04   1.5002E+06  0.000E+00  0.000E+00  0.000E+00  1.14186E+02  2.306E+00  5.000E+00  5.000E+03 -1.619E+01
   1   16   10     2     6    1.5002E+06 -2.7071E+04   1.5272E+06  0.000E+00  0.000E+00  0.000E+00  1.13397E+02  2.337E+00  5.000E+00  5.000E+03 -1.083E+01
   1   22   10     3     1    1.8538E+06 -2.7664E+04   1.8815E+06  0.000E+00  0.000E+00  0.000E+00  1.11496E+02  2.540E+00  5.000E+00  5.000E+03 -1.107E+01
   1   23   10     3     2    1.8815E+06 -3.9905E+04   1.9214E+06  0.000E+00  0.000E+00  0.000E+00  1.10696E+02  2.568E+00  5.000E+00  3.750E+03 -2.128E+01
   1   23   11     3     3    1.9214E+06 -2.3662E+04   1.9451E+06  0.000E+00  0.000E+00  0.000E+00  1.10131E+02  2.594E+00  5.000E+00  2.500E+03 -1.893E+01
   1   23   12     3     4    1.9451E+06 -4.6963E+04   1.9920E+06  0.000E+00  0.000E+00  0.000E+00  1.09449E+02  2.622E+00  5.000E+00  5.000E+03 -1.879E+01
   1   23   13     3     5    1.9920E+06 -5.0613E+04   2.0427E+06  0.000E+00  0.000E+00  0.000E+00  1.08542E+02  2.661E+00  5.000E+00  5.000E+03 -2.025E+01
   1   23   14     3     6    2.0427E+06 -5.4370E+04   2.0970E+06  0.000E+00  0.000E+00  0.000E+00  1.07638E+02  2.702E+00  5.000E+00  5.000E+03 -2.175E+01
   1   23   15     3     7    2.0970E+06 -6.1766E+04   2.1588E+06  0.000E+00  0.000E+00  0.000E+00  1.06737E+02  2.747E+00  5.000E+00  5.000E+03 -2.471E+01
   1   23   16     3     8    2.1588E+06 -9.0002E+04   2.2488E+06  0.000E+00  0.000E+00  0.000E+00  1.05850E+02  2.806E+00  5.000E+00  5.000E+03 -3.600E+01





     0  LAKE CELLS ARE DRY.

 PERIOD     1     TIME STEP   133     TIME STEP LENGTH  8.4645E+00
 PERIOD TIME  8.2494E+02     TOTAL SIMULATION TIME  8.2494E+02


                 HYDROLOGIC BUDGET SUMMARIES FOR SIMULATED LAKES
     (ALL FLUID FLUXES ARE VOLUMES ADDED TO THE LAKE DURING PRESENT TIME STEP)
     -------------------------------------------------------------------------
 LAKE    STAGE         VOLUME     VOL.CHANGE      PRECIP     EVAPORATION        RUNOFF
   1   117.0253     8.5158E+07    1.5280E+03    6.1367E+05    5.4490E+05    0.0000E+00
   2   111.9578     5.3485E+07    3.3240E+03    6.1367E+05    5.4490E+05    0.0000E+00

            GROUND WATER            SURFACE WATER        WATER
 LAKE    INFLOW     OUTFLOW      INFLOW     OUTFLOW       USE
   1  2.4840E+06  0.0000E+00  8.8194E+06  1.1371E+07  0.0000E+00
   2  2.6992E+06  0.0000E+00  1.2927E+07  1.5692E+07  0.0000E+00

      CONNECTED LAKE   TIME-STEP         STAGE-CHANGE          PERCENT
 LAKE    INFLUX      SURFACE AREA   TIME STEP  CUMULATIVE    DISCREPANCY
   1   0.0000E+00     6.2500E+06   2.4466E-04 -1.2975E+01       0.000
   2   0.0000E+00     6.2500E+06   5.3137E-04 -1.8042E+01       0.000
 --------------------------------------------------------------------------------



            CUMULATIVE HYDROLOGIC BUDGET SUMMARIES FOR SIMULATED LAKES
     (ALL FLUID FLUXES ARE SUMS OF VOLUMES ADDED TO THE LAKE SINCE INITIAL TIME)
     ---------------------------------------------------------------------------
 LAKE       PRECIP       EVAP       RUNOFF
   1     5.9808E+07  5.3106E+07  0.0000E+00
   2     5.9808E+07  5.3106E+07  0.0000E+00

            GROUND WATER            SURFACE WATER
 LAKE    INFLOW     OUTFLOW      INFLOW     OUTFLOW
   1  1.6826E+08  1.5644E+06  7.9378E+08  1.0483E+09
   2  1.9124E+08  1.4259E+06  1.1575E+09  1.4668E+09

         WATER    CONNECTED LAKE   CHANGE       PERCENT
 LAKE     USE         INFLUX       IN VOL.    DISCREPANCY
   1   0.0000E+00   0.0000E+00  -8.1091E+07      0.000
   2   0.0000E+00   0.0000E+00  -1.1276E+08      0.000
 --------------------------------------------------------------------------------

 
 SOLVING FOR HEAD 
     4 ITERATIONS FOR TIME STEP 134 IN STRESS PERIOD    1

 HEAD/DRAWDOWN PRINTOUT FLAG = 0     TOTAL BUDGET PRINTOUT FLAG = 0
 CELL-BY-CELL FLOW TERM FLAG = 1

 OUTPUT FLAGS FOR ALL LAYERS ARE THE SAME:
   HEAD    DRAWDOWN  HEAD  DRAWDOWN
 PRINTOUT  PRINTOUT  SAVE    SAVE
 ----------------------------------
     0         0       0       0



 STREAM LISTING     PERIOD      1   STEP      134

 LAYER ROW COL. STREAM  RCH.  FLOW INTO     FLOW TO   FLOW OUT OF   OVRLND.     DIRECT     STREAM       STREAM     STREAM     STREAM   STREAMBED  STREAMBED
                SEG.NO.  NO.  STRM. RCH.    AQUIFER    STRM. RCH.    RUNOFF     PRECIP       ET          HEAD       DEPTH      WIDTH   CONDCTNC.   GRADIENT

   1    2    5     1     1    6.9120E+05 -8.0005E+04   7.7121E+05  0.000E+00  0.000E+00  0.000E+00  1.25330E+02  1.382E+00  5.000E+00  5.000E+03 -3.200E+01
   1    3    5     1     2    7.7121E+05 -5.6289E+04   8.2749E+05  0.000E+00  0.000E+00  0.000E+00  1.24303E+02  1.458E+00  5.000E+00  5.000E+03 -2.252E+01
   1    4    5     1     3    8.2749E+05 -5.3202E+04   8.8070E+05  0.000E+00  0.000E+00  0.000E+00  1.23258E+02  1.517E+00  5.000E+00  5.000E+03 -2.128E+01
   1    4    6     1     4    8.8070E+05 -4.3476E+04   9.2417E+05  0.000E+00  0.000E+00  0.000E+00  1.22206E+02  1.568E+00  5.000E+00  5.000E+03 -1.739E+01
   1    4    7     1     5    9.2417E+05 -2.1173E+04   9.4534E+05  0.000E+00  0.000E+00  0.000E+00  1.21412E+02  1.601E+00  5.000E+00  2.500E+03 -1.694E+01
   1    4    8     1     6    9.4534E+05 -3.4775E+04   9.8012E+05  0.000E+00  0.000E+00  0.000E+00  1.20751E+02  1.630E+00  5.000E+00  3.750E+03 -1.855E+01
   1    5    8     1     7    9.8012E+05 -3.6648E+04   1.0168E+06  0.000E+00  0.000E+00  0.000E+00  1.19821E+02  1.666E+00  5.000E+00  5.000E+03 -1.466E+01
   1    6    8     1     8    1.0168E+06 -2.5222E+04   1.0420E+06  0.000E+00  0.000E+00  0.000E+00  1.18748E+02  1.697E+00  5.000E+00  5.000E+03 -1.009E+01
   1   12    9     2     1    1.3436E+06 -2.6983E+04   1.3706E+06  0.000E+00  0.000E+00  0.000E+00  1.16628E+02  2.189E+00  5.000E+00  5.000E+03 -1.079E+01
   1   13    9     2     2    1.3706E+06 -4.2427E+04   1.4130E+06  0.000E+00  0.000E+00  0.000E+00  1.15841E+02  2.222E+00  5.000E+00  5.000E+03 -1.697E+01
   1   14   10     2     3    1.4130E+06 -2.2905E+04   1.4359E+06  0.000E+00  0.000E+00  0.000E+00  1.15233E+02  2.253E+00  5.000E+00  2.795E+03 -1.639E+01
   1   14   10     2     4    1.4359E+06 -2.4125E+04   1.4600E+06  0.000E+00  0.000E+00  0.000E+00  1.14796E+02  2.276E+00  5.000E+00  2.795E+03 -1.726E+01
   1   15   10     2     5    1.4600E+06 -4.0513E+04   1.5005E+06  0.000E+00  0.000E+00  0.000E+00  1.14187E+02  2.306E+00  5.000E+00  5.000E+03 -1.621E+01
   1   16   10     2     6    1.5005E+06 -2.7092E+04   1.5276E+06  0.000E+00  0.000E+00  0.000E+00  1.13398E+02  2.337E+00  5.000E+00  5.000E+03 -1.084E+01
   1   22   10     3     1    1.8545E+06 -2.7675E+04   1.8821E+06  0.000E+00  0.000E+00  0.000E+00  1.11497E+02  2.541E+00  5.000E+00  5.000E+03 -1.107E+01
   1   23   10     3     2    1.8821E+06 -3.9918E+04   1.9221E+06  0.000E+00  0.000E+00  0.000E+00  1.10697E+02  2.568E+00  5.000E+00  3.750E+03 -2.129E+01
   1   23   11     3     3    1.9221E+06 -2.3669E+04   1.9457E+06  0.000E+00  0.000E+00  0.000E+00  1.10131E+02  2.594E+00  5.000E+00  2.500E+03 -1.893E+01
   1   23   12     3     4    1.9457E+06 -4.6975E+04   1.9927E+06  0.000E+00  0.000E+00  0.000E+00  1.09450E+02  2.622E+00  5.000E+00  5.000E+03 -1.879E+01
   1   23   13     3     5    1.9927E+06 -5.0625E+04   2.0433E+06  0.000E+00  0.000E+00  0.000E+00  1.08543E+02  2.661E+00  5.000E+00  5.000E+03 -2.025E+01
   1   23   14     3     6    2.0433E+06 -5.4379E+04   2.0977E+06  0.000E+00  0.000E+00  0.000E+00  1.07639E+02  2.703E+00  5.000E+00  5.000E+03 -2.175E+01
   1   23   15     3     7    2.0977E+06 -6.1772E+04   2.1595E+06  0.000E+00  0.000E+00  0.000E+00  1.06738E+02  2.748E+00  5.000E+00  5.000E+03 -2.471E+01
   1   23   16     3     8    2.1595E+06 -9.0003E+04   2.2495E+06  0.000E+00  0.000E+00  0.000E+00  1.05850E+02  2.806E+00  5.000E+00  5.000E+03 -3.600E+01





     0  LAKE CELLS ARE DRY.

 PERIOD     1     TIME STEP   134     TIME STEP LENGTH  8.5068E+00
 PERIOD TIME  8.3345E+02     TOTAL SIMULATION TIME  8.3345E+02


                 HYDROLOGIC BUDGET SUMMARIES FOR SIMULATED LAKES
     (ALL FLUID FLUXES ARE VOLUMES ADDED TO THE LAKE DURING PRESENT TIME STEP)
     -------------------------------------------------------------------------
 LAKE    STAGE         VOLUME     VOL.CHANGE      PRECIP     EVAPORATION        RUNOFF
   1   117.0256     8.5159E+07    1.4480E+03    6.1674E+05    5.4763E+05    0.0000E+00
   2   111.9583     5.3488E+07    3.1560E+03    6.1674E+05    5.4763E+05    0.0000E+00

            GROUND WATER            SURFACE WATER        WATER
 LAKE    INFLOW     OUTFLOW      INFLOW     OUTFLOW       USE
   1  2.4978E+06  0.0000E+00  8.8640E+06  1.1429E+07  0.0000E+00
   2  2.7145E+06  0.0000E+00  1.2995E+07  1.5776E+07  0.0000E+00

      CONNECTED LAKE   TIME-STEP         STAGE-CHANGE          PERCENT
 LAKE    INFLUX      SURFACE AREA   TIME STEP  CUMULATIVE    DISCREPANCY
   1   0.0000E+00     6.2500E+06   2.3244E-04 -1.2974E+01       0.000
   2   0.0000E+00     6.2500E+06   5.0523E-04 -1.8042E+01       0.000
 --------------------------------------------------------------------------------



            CUMULATIVE HYDROLOGIC BUDGET SUMMARIES FOR SIMULATED LAKES
     (ALL FLUID FLUXES ARE SUMS OF VOLUMES ADDED TO THE LAKE SINCE INITIAL TIME)
     ---------------------------------------------------------------------------
 LAKE       PRECIP       EVAP       RUNOFF
   1     6.0425E+07  5.3653E+07  0.0000E+00
   2     6.0425E+07  5.3653E+07  0.0000E+00

            GROUND WATER            SURFACE WATER
 LAKE    INFLOW     OUTFLOW      INFLOW     OUTFLOW
   1  1.7076E+08  1.5644E+06  8.0265E+08  1.0597E+09
   2  1.9395E+08  1.4259E+06  1.1705E+09  1.4825E+09

         WATER    CONNECTED LAKE   CHANGE       PERCENT
 LAKE     USE         INFLUX       IN VOL.    DISCREPANCY
   1   0.0000E+00   0.0000E+00  -8.1089E+07      0.000
   2   0.0000E+00   0.0000E+00  -1.1276E+08      0.000
 --------------------------------------------------------------------------------

 
 SOLVING FOR HEAD 
     4 ITERATIONS FOR TIME STEP 135 IN STRESS PERIOD    1

 HEAD/DRAWDOWN PRINTOUT FLAG = 0     TOTAL BUDGET PRINTOUT FLAG = 0
 CELL-BY-CELL FLOW TERM FLAG = 1

 OUTPUT FLAGS FOR ALL LAYERS ARE THE SAME:
   HEAD    DRAWDOWN  HEAD  DRAWDOWN
 PRINTOUT  PRINTOUT  SAVE    SAVE
 ----------------------------------
     0         0       0       0



 STREAM LISTING     PERIOD      1   STEP      135

 LAYER ROW COL. STREAM  RCH.  FLOW INTO     FLOW TO   FLOW OUT OF   OVRLND.     DIRECT     STREAM       STREAM     STREAM     STREAM   STREAMBED  STREAMBED
                SEG.NO.  NO.  STRM. RCH.    AQUIFER    STRM. RCH.    RUNOFF     PRECIP       ET          HEAD       DEPTH      WIDTH   CONDCTNC.   GRADIENT

   1    2    5     1     1    6.9120E+05 -8.0007E+04   7.7121E+05  0.000E+00  0.000E+00  0.000E+00  1.25330E+02  1.382E+00  5.000E+00  5.000E+03 -3.200E+01
   1    3    5     1     2    7.7121E+05 -5.6294E+04   8.2750E+05  0.000E+00  0.000E+00  0.000E+00  1.24303E+02  1.458E+00  5.000E+00  5.000E+03 -2.252E+01
   1    4    5     1     3    8.2750E+05 -5.3212E+04   8.8071E+05  0.000E+00  0.000E+00  0.000E+00  1.23258E+02  1.517E+00  5.000E+00  5.000E+03 -2.128E+01
   1    4    6     1     4    8.8071E+05 -4.3485E+04   9.2420E+05  0.000E+00  0.000E+00  0.000E+00  1.22206E+02  1.568E+00  5.000E+00  5.000E+03 -1.739E+01
   1    4    7     1     5    9.2420E+05 -2.1177E+04   9.4538E+05  0.000E+00  0.000E+00  0.000E+00  1.21412E+02  1.601E+00  5.000E+00  2.500E+03 -1.694E+01
   1    4    8     1     6    9.4538E+05 -3.4782E+04   9.8016E+05  0.000E+00  0.000E+00  0.000E+00  1.20751E+02  1.630E+00  5.000E+00  3.750E+03 -1.855E+01
   1    5    8     1     7    9.8016E+05 -3.6660E+04   1.0168E+06  0.000E+00  0.000E+00  0.000E+00  1.19821E+02  1.666E+00  5.000E+00  5.000E+03 -1.466E+01
   1    6    8     1     8    1.0168E+06 -2.5232E+04   1.0420E+06  0.000E+00  0.000E+00  0.000E+00  1.18748E+02  1.697E+00  5.000E+00  5.000E+03 -1.009E+01
   1   12    9     2     1    1.3438E+06 -2.7002E+04   1.3708E+06  0.000E+00  0.000E+00  0.000E+00  1.16629E+02  2.189E+00  5.000E+00  5.000E+03 -1.080E+01
   1   13    9     2     2    1.3708E+06 -4.2461E+04   1.4133E+06  0.000E+00  0.000E+00  0.000E+00  1.15841E+02  2.222E+00  5.000E+00  5.000E+03 -1.698E+01
   1   14   10     2     3    1.4133E+06 -2.2923E+04   1.4362E+06  0.000E+00  0.000E+00  0.000E+00  1.15233E+02  2.254E+00  5.000E+00  2.795E+03 -1.640E+01
   1   14   10     2     4    1.4362E+06 -2.4143E+04   1.4603E+06  0.000E+00  0.000E+00  0.000E+00  1.14796E+02  2.276E+00  5.000E+00  2.795E+03 -1.728E+01
   1   15   10     2     5    1.4603E+06 -4.0546E+04   1.5009E+06  0.000E+00  0.000E+00  0.000E+00  1.14187E+02  2.306E+00  5.000E+00  5.000E+03 -1.622E+01
   1   16   10     2     6    1.5009E+06 -2.7113E+04   1.5280E+06  0.000E+00  0.000E+00  0.000E+00  1.13398E+02  2.338E+00  5.000E+00  5.000E+03 -1.085E+01
   1   22   10     3     1    1.8550E+06 -2.7686E+04   1.8827E+06  0.000E+00  0.000E+00  0.000E+00  1.11497E+02  2.541E+00  5.000E+00  5.000E+03 -1.107E+01
   1   23   10     3     2    1.8827E+06 -3.9930E+04   1.9227E+06  0.000E+00  0.000E+00  0.000E+00  1.10697E+02  2.569E+00  5.000E+00  3.750E+03 -2.130E+01
   1   23   11     3     3    1.9227E+06 -2.3675E+04   1.9463E+06  0.000E+00  0.000E+00  0.000E+00  1.10132E+02  2.595E+00  5.000E+00  2.500E+03 -1.894E+01
   1   23   12     3     4    1.9463E+06 -4.6987E+04   1.9933E+06  0.000E+00  0.000E+00  0.000E+00  1.09451E+02  2.623E+00  5.000E+00  5.000E+03 -1.879E+01
   1   23   13     3     5    1.9933E+06 -5.0636E+04   2.0440E+06  0.000E+00  0.000E+00  0.000E+00  1.08544E+02  2.662E+00  5.000E+00  5.000E+03 -2.025E+01
   1   23   14     3     6    2.0440E+06 -5.4388E+04   2.0983E+06  0.000E+00  0.000E+00  0.000E+00  1.07639E+02  2.703E+00  5.000E+00  5.000E+03 -2.176E+01
   1   23   15     3     7    2.0983E+06 -6.1777E+04   2.1601E+06  0.000E+00  0.000E+00  0.000E+00  1.06738E+02  2.748E+00  5.000E+00  5.000E+03 -2.471E+01
   1   23   16     3     8    2.1601E+06 -9.0005E+04   2.2501E+06  0.000E+00  0.000E+00  0.000E+00  1.05851E+02  2.807E+00  5.000E+00  5.000E+03 -3.600E+01





     0  LAKE CELLS ARE DRY.

 PERIOD     1     TIME STEP   135     TIME STEP LENGTH  8.5493E+00
 PERIOD TIME  8.4200E+02     TOTAL SIMULATION TIME  8.4200E+02


                 HYDROLOGIC BUDGET SUMMARIES FOR SIMULATED LAKES
     (ALL FLUID FLUXES ARE VOLUMES ADDED TO THE LAKE DURING PRESENT TIME STEP)
     -------------------------------------------------------------------------
 LAKE    STAGE         VOLUME     VOL.CHANGE      PRECIP     EVAPORATION        RUNOFF
   1   117.0258     8.5160E+07    1.3600E+03    6.1983E+05    5.5036E+05    0.0000E+00
   2   111.9588     5.3491E+07    2.9800E+03    6.1983E+05    5.5036E+05    0.0000E+00

            GROUND WATER            SURFACE WATER        WATER
 LAKE    INFLOW     OUTFLOW      INFLOW     OUTFLOW       USE
   1  2.5116E+06  0.0000E+00  8.9088E+06  1.1489E+07  0.0000E+00
   2  2.7297E+06  0.0000E+00  1.3063E+07  1.5859E+07  0.0000E+00

      CONNECTED LAKE   TIME-STEP         STAGE-CHANGE          PERCENT
 LAKE    INFLUX      SURFACE AREA   TIME STEP  CUMULATIVE    DISCREPANCY
   1   0.0000E+00     6.2500E+06   2.1646E-04 -1.2974E+01       0.000
   2   0.0000E+00     6.2500E+06   4.7680E-04 -1.8041E+01       0.000
 --------------------------------------------------------------------------------



            CUMULATIVE HYDROLOGIC BUDGET SUMMARIES FOR SIMULATED LAKES
     (ALL FLUID FLUXES ARE SUMS OF VOLUMES ADDED TO THE LAKE SINCE INITIAL TIME)
     ---------------------------------------------------------------------------
 LAKE       PRECIP       EVAP       RUNOFF
   1     6.1045E+07  5.4204E+07  0.0000E+00
   2     6.1045E+07  5.4204E+07  0.0000E+00

            GROUND WATER            SURFACE WATER
 LAKE    INFLOW     OUTFLOW      INFLOW     OUTFLOW
   1  1.7327E+08  1.5644E+06  8.1156E+08  1.0712E+09
   2  1.9668E+08  1.4259E+06  1.1836E+09  1.4984E+09

         WATER    CONNECTED LAKE   CHANGE       PERCENT
 LAKE     USE         INFLUX       IN VOL.    DISCREPANCY
   1   0.0000E+00   0.0000E+00  -8.1088E+07      0.000
   2   0.0000E+00   0.0000E+00  -1.1276E+08      0.000
 --------------------------------------------------------------------------------

 
 SOLVING FOR HEAD 
     4 ITERATIONS FOR TIME STEP 136 IN STRESS PERIOD    1

 HEAD/DRAWDOWN PRINTOUT FLAG = 0     TOTAL BUDGET PRINTOUT FLAG = 0
 CELL-BY-CELL FLOW TERM FLAG = 1

 OUTPUT FLAGS FOR ALL LAYERS ARE THE SAME:
   HEAD    DRAWDOWN  HEAD  DRAWDOWN
 PRINTOUT  PRINTOUT  SAVE    SAVE
 ----------------------------------
     0         0       0       0



 STREAM LISTING     PERIOD      1   STEP      136

 LAYER ROW COL. STREAM  RCH.  FLOW INTO     FLOW TO   FLOW OUT OF   OVRLND.     DIRECT     STREAM       STREAM     STREAM     STREAM   STREAMBED  STREAMBED
                SEG.NO.  NO.  STRM. RCH.    AQUIFER    STRM. RCH.    RUNOFF     PRECIP       ET          HEAD       DEPTH      WIDTH   CONDCTNC.   GRADIENT

   1    2    5     1     1    6.9120E+05 -8.0008E+04   7.7121E+05  0.000E+00  0.000E+00  0.000E+00  1.25330E+02  1.382E+00  5.000E+00  5.000E+03 -3.200E+01
   1    3    5     1     2    7.7121E+05 -5.6298E+04   8.2751E+05  0.000E+00  0.000E+00  0.000E+00  1.24303E+02  1.458E+00  5.000E+00  5.000E+03 -2.252E+01
   1    4    5     1     3    8.2751E+05 -5.3222E+04   8.8073E+05  0.000E+00  0.000E+00  0.000E+00  1.23258E+02  1.517E+00  5.000E+00  5.000E+03 -2.129E+01
   1    4    6     1     4    8.8073E+05 -4.3494E+04   9.2422E+05  0.000E+00  0.000E+00  0.000E+00  1.22206E+02  1.568E+00  5.000E+00  5.000E+03 -1.740E+01
   1    4    7     1     5    9.2422E+05 -2.1181E+04   9.4540E+05  0.000E+00  0.000E+00  0.000E+00  1.21412E+02  1.601E+00  5.000E+00  2.500E+03 -1.695E+01
   1    4    8     1     6    9.4540E+05 -3.4788E+04   9.8019E+05  0.000E+00  0.000E+00  0.000E+00  1.20751E+02  1.630E+00  5.000E+00  3.750E+03 -1.855E+01
   1    5    8     1     7    9.8019E+05 -3.6670E+04   1.0169E+06  0.000E+00  0.000E+00  0.000E+00  1.19821E+02  1.666E+00  5.000E+00  5.000E+03 -1.467E+01
   1    6    8     1     8    1.0169E+06 -2.5241E+04   1.0421E+06  0.000E+00  0.000E+00  0.000E+00  1.18749E+02  1.697E+00  5.000E+00  5.000E+03 -1.010E+01
   1   12    9     2     1    1.3440E+06 -2.7019E+04   1.3710E+06  0.000E+00  0.000E+00  0.000E+00  1.16629E+02  2.189E+00  5.000E+00  5.000E+03 -1.081E+01
   1   13    9     2     2    1.3710E+06 -4.2493E+04   1.4135E+06  0.000E+00  0.000E+00  0.000E+00  1.15842E+02  2.223E+00  5.000E+00  5.000E+03 -1.700E+01
   1   14   10     2     3    1.4135E+06 -2.2941E+04   1.4365E+06  0.000E+00  0.000E+00  0.000E+00  1.15233E+02  2.254E+00  5.000E+00  2.795E+03 -1.642E+01
   1   14   10     2     4    1.4365E+06 -2.4161E+04   1.4606E+06  0.000E+00  0.000E+00  0.000E+00  1.14797E+02  2.276E+00  5.000E+00  2.795E+03 -1.729E+01
   1   15   10     2     5    1.4606E+06 -4.0576E+04   1.5012E+06  0.000E+00  0.000E+00  0.000E+00  1.14187E+02  2.306E+00  5.000E+00  5.000E+03 -1.623E+01
   1   16   10     2     6    1.5012E+06 -2.7132E+04   1.5283E+06  0.000E+00  0.000E+00  0.000E+00  1.13398E+02  2.338E+00  5.000E+00  5.000E+03 -1.085E+01
   1   22   10     3     1    1.8556E+06 -2.7696E+04   1.8833E+06  0.000E+00  0.000E+00  0.000E+00  1.11498E+02  2.542E+00  5.000E+00  5.000E+03 -1.108E+01
   1   23   10     3     2    1.8833E+06 -3.9941E+04   1.9232E+06  0.000E+00  0.000E+00  0.000E+00  1.10697E+02  2.569E+00  5.000E+00  3.750E+03 -2.130E+01
   1   23   11     3     3    1.9232E+06 -2.3681E+04   1.9469E+06  0.000E+00  0.000E+00  0.000E+00  1.10132E+02  2.595E+00  5.000E+00  2.500E+03 -1.894E+01
   1   23   12     3     4    1.9469E+06 -4.6998E+04   1.9939E+06  0.000E+00  0.000E+00  0.000E+00  1.09451E+02  2.623E+00  5.000E+00  5.000E+03 -1.880E+01
   1   23   13     3     5    1.9939E+06 -5.0646E+04   2.0446E+06  0.000E+00  0.000E+00  0.000E+00  1.08544E+02  2.662E+00  5.000E+00  5.000E+03 -2.026E+01
   1   23   14     3     6    2.0446E+06 -5.4396E+04   2.0990E+06  0.000E+00  0.000E+00  0.000E+00  1.07639E+02  2.704E+00  5.000E+00  5.000E+03 -2.176E+01
   1   23   15     3     7    2.0990E+06 -6.1782E+04   2.1607E+06  0.000E+00  0.000E+00  0.000E+00  1.06739E+02  2.749E+00  5.000E+00  5.000E+03 -2.471E+01
   1   23   16     3     8    2.1607E+06 -9.0006E+04   2.2508E+06  0.000E+00  0.000E+00  0.000E+00  1.05851E+02  2.807E+00  5.000E+00  5.000E+03 -3.600E+01





     0  LAKE CELLS ARE DRY.

 PERIOD     1     TIME STEP   136     TIME STEP LENGTH  8.5921E+00
 PERIOD TIME  8.5059E+02     TOTAL SIMULATION TIME  8.5059E+02


                 HYDROLOGIC BUDGET SUMMARIES FOR SIMULATED LAKES
     (ALL FLUID FLUXES ARE VOLUMES ADDED TO THE LAKE DURING PRESENT TIME STEP)
     -------------------------------------------------------------------------
 LAKE    STAGE         VOLUME     VOL.CHANGE      PRECIP     EVAPORATION        RUNOFF
   1   117.0260     8.5162E+07    1.3040E+03    6.2293E+05    5.5312E+05    0.0000E+00
   2   111.9592     5.3494E+07    2.8240E+03    6.2293E+05    5.5312E+05    0.0000E+00

            GROUND WATER            SURFACE WATER        WATER
 LAKE    INFLOW     OUTFLOW      INFLOW     OUTFLOW       USE
   1  2.5255E+06  0.0000E+00  8.9538E+06  1.1548E+07  0.0000E+00
   2  2.7450E+06  0.0000E+00  1.3132E+07  1.5944E+07  0.0000E+00

      CONNECTED LAKE   TIME-STEP         STAGE-CHANGE          PERCENT
 LAKE    INFLUX      SURFACE AREA   TIME STEP  CUMULATIVE    DISCREPANCY
   1   0.0000E+00     6.2500E+06   2.0964E-04 -1.2974E+01       0.000
   2   0.0000E+00     6.2500E+06   4.5169E-04 -1.8041E+01       0.000
 --------------------------------------------------------------------------------



            CUMULATIVE HYDROLOGIC BUDGET SUMMARIES FOR SIMULATED LAKES
     (ALL FLUID FLUXES ARE SUMS OF VOLUMES ADDED TO THE LAKE SINCE INITIAL TIME)
     ---------------------------------------------------------------------------
 LAKE       PRECIP       EVAP       RUNOFF
   1     6.1668E+07  5.4757E+07  0.0000E+00
   2     6.1668E+07  5.4757E+07  0.0000E+00

            GROUND WATER            SURFACE WATER
 LAKE    INFLOW     OUTFLOW      INFLOW     OUTFLOW
   1  1.7580E+08  1.5644E+06  8.2051E+08  1.0827E+09
   2  1.9943E+08  1.4259E+06  1.1967E+09  1.5144E+09

         WATER    CONNECTED LAKE   CHANGE       PERCENT
 LAKE     USE         INFLUX       IN VOL.    DISCREPANCY
   1   0.0000E+00   0.0000E+00  -8.1087E+07      0.000
   2   0.0000E+00   0.0000E+00  -1.1275E+08      0.000
 --------------------------------------------------------------------------------

 
 SOLVING FOR HEAD 
     4 ITERATIONS FOR TIME STEP 137 IN STRESS PERIOD    1

 HEAD/DRAWDOWN PRINTOUT FLAG = 0     TOTAL BUDGET PRINTOUT FLAG = 0
 CELL-BY-CELL FLOW TERM FLAG = 1

 OUTPUT FLAGS FOR ALL LAYERS ARE THE SAME:
   HEAD    DRAWDOWN  HEAD  DRAWDOWN
 PRINTOUT  PRINTOUT  SAVE    SAVE
 ----------------------------------
     0         0       0       0



 STREAM LISTING     PERIOD      1   STEP      137

 LAYER ROW COL. STREAM  RCH.  FLOW INTO     FLOW TO   FLOW OUT OF   OVRLND.     DIRECT     STREAM       STREAM     STREAM     STREAM   STREAMBED  STREAMBED
                SEG.NO.  NO.  STRM. RCH.    AQUIFER    STRM. RCH.    RUNOFF     PRECIP       ET          HEAD       DEPTH      WIDTH   CONDCTNC.   GRADIENT

   1    2    5     1     1    6.9120E+05 -8.0010E+04   7.7121E+05  0.000E+00  0.000E+00  0.000E+00  1.25330E+02  1.382E+00  5.000E+00  5.000E+03 -3.200E+01
   1    3    5     1     2    7.7121E+05 -5.6303E+04   8.2751E+05  0.000E+00  0.000E+00  0.000E+00  1.24303E+02  1.458E+00  5.000E+00  5.000E+03 -2.252E+01
   1    4    5     1     3    8.2751E+05 -5.3231E+04   8.8074E+05  0.000E+00  0.000E+00  0.000E+00  1.23258E+02  1.517E+00  5.000E+00  5.000E+03 -2.129E+01
   1    4    6     1     4    8.8074E+05 -4.3502E+04   9.2425E+05  0.000E+00  0.000E+00  0.000E+00  1.22206E+02  1.568E+00  5.000E+00  5.000E+03 -1.740E+01
   1    4    7     1     5    9.2425E+05 -2.1185E+04   9.4543E+05  0.000E+00  0.000E+00  0.000E+00  1.21412E+02  1.601E+00  5.000E+00  2.500E+03 -1.695E+01
   1    4    8     1     6    9.4543E+05 -3.4793E+04   9.8022E+05  0.000E+00  0.000E+00  0.000E+00  1.20751E+02  1.630E+00  5.000E+00  3.750E+03 -1.856E+01
   1    5    8     1     7    9.8022E+05 -3.6680E+04   1.0169E+06  0.000E+00  0.000E+00  0.000E+00  1.19821E+02  1.666E+00  5.000E+00  5.000E+03 -1.467E+01
   1    6    8     1     8    1.0169E+06 -2.5250E+04   1.0422E+06  0.000E+00  0.000E+00  0.000E+00  1.18749E+02  1.697E+00  5.000E+00  5.000E+03 -1.010E+01
   1   12    9     2     1    1.3442E+06 -2.7036E+04   1.3712E+06  0.000E+00  0.000E+00  0.000E+00  1.16629E+02  2.189E+00  5.000E+00  5.000E+03 -1.081E+01
   1   13    9     2     2    1.3712E+06 -4.2524E+04   1.4138E+06  0.000E+00  0.000E+00  0.000E+00  1.15842E+02  2.223E+00  5.000E+00  5.000E+03 -1.701E+01
   1   14   10     2     3    1.4138E+06 -2.2957E+04   1.4367E+06  0.000E+00  0.000E+00  0.000E+00  1.15233E+02  2.254E+00  5.000E+00  2.795E+03 -1.643E+01
   1   14   10     2     4    1.4367E+06 -2.4177E+04   1.4609E+06  0.000E+00  0.000E+00  0.000E+00  1.14797E+02  2.276E+00  5.000E+00  2.795E+03 -1.730E+01
   1   15   10     2     5    1.4609E+06 -4.0605E+04   1.5015E+06  0.000E+00  0.000E+00  0.000E+00  1.14188E+02  2.307E+00  5.000E+00  5.000E+03 -1.624E+01
   1   16   10     2     6    1.5015E+06 -2.7151E+04   1.5287E+06  0.000E+00  0.000E+00  0.000E+00  1.13399E+02  2.338E+00  5.000E+00  5.000E+03 -1.086E+01
   1   22   10     3     1    1.8561E+06 -2.7705E+04   1.8838E+06  0.000E+00  0.000E+00  0.000E+00  1.11498E+02  2.542E+00  5.000E+00  5.000E+03 -1.108E+01
   1   23   10     3     2    1.8838E+06 -3.9951E+04   1.9238E+06  0.000E+00  0.000E+00  0.000E+00  1.10698E+02  2.570E+00  5.000E+00  3.750E+03 -2.131E+01
   1   23   11     3     3    1.9238E+06 -2.3686E+04   1.9475E+06  0.000E+00  0.000E+00  0.000E+00  1.10132E+02  2.595E+00  5.000E+00  2.500E+03 -1.895E+01
   1   23   12     3     4    1.9475E+06 -4.7008E+04   1.9945E+06  0.000E+00  0.000E+00  0.000E+00  1.09451E+02  2.624E+00  5.000E+00  5.000E+03 -1.880E+01
   1   23   13     3     5    1.9945E+06 -5.0656E+04   2.0451E+06  0.000E+00  0.000E+00  0.000E+00  1.08544E+02  2.663E+00  5.000E+00  5.000E+03 -2.026E+01
   1   23   14     3     6    2.0451E+06 -5.4403E+04   2.0995E+06  0.000E+00  0.000E+00  0.000E+00  1.07640E+02  2.704E+00  5.000E+00  5.000E+03 -2.176E+01
   1   23   15     3     7    2.0995E+06 -6.1787E+04   2.1613E+06  0.000E+00  0.000E+00  0.000E+00  1.06739E+02  2.749E+00  5.000E+00  5.000E+03 -2.471E+01
   1   23   16     3     8    2.1613E+06 -9.0008E+04   2.2513E+06  0.000E+00  0.000E+00  0.000E+00  1.05852E+02  2.808E+00  5.000E+00  5.000E+03 -3.600E+01





     0  LAKE CELLS ARE DRY.

 PERIOD     1     TIME STEP   137     TIME STEP LENGTH  8.6350E+00
 PERIOD TIME  8.5923E+02     TOTAL SIMULATION TIME  8.5923E+02


                 HYDROLOGIC BUDGET SUMMARIES FOR SIMULATED LAKES
     (ALL FLUID FLUXES ARE VOLUMES ADDED TO THE LAKE DURING PRESENT TIME STEP)
     -------------------------------------------------------------------------
 LAKE    STAGE         VOLUME     VOL.CHANGE      PRECIP     EVAPORATION        RUNOFF
   1   117.0262     8.5163E+07    1.2160E+03    6.2604E+05    5.5588E+05    0.0000E+00
   2   111.9596     5.3497E+07    2.6680E+03    6.2604E+05    5.5588E+05    0.0000E+00

            GROUND WATER            SURFACE WATER        WATER
 LAKE    INFLOW     OUTFLOW      INFLOW     OUTFLOW       USE
   1  2.5393E+06  0.0000E+00  8.9990E+06  1.1607E+07  0.0000E+00
   2  2.7602E+06  0.0000E+00  1.3200E+07  1.6028E+07  0.0000E+00

      CONNECTED LAKE   TIME-STEP         STAGE-CHANGE          PERCENT
 LAKE    INFLUX      SURFACE AREA   TIME STEP  CUMULATIVE    DISCREPANCY
   1   0.0000E+00     6.2500E+06   1.9402E-04 -1.2974E+01       0.000
   2   0.0000E+00     6.2500E+06   4.2714E-04 -1.8040E+01       0.000
 --------------------------------------------------------------------------------



            CUMULATIVE HYDROLOGIC BUDGET SUMMARIES FOR SIMULATED LAKES
     (ALL FLUID FLUXES ARE SUMS OF VOLUMES ADDED TO THE LAKE SINCE INITIAL TIME)
     ---------------------------------------------------------------------------
 LAKE       PRECIP       EVAP       RUNOFF
   1     6.2294E+07  5.5313E+07  0.0000E+00
   2     6.2294E+07  5.5313E+07  0.0000E+00

            GROUND WATER            SURFACE WATER
 LAKE    INFLOW     OUTFLOW      INFLOW     OUTFLOW
   1  1.7834E+08  1.5644E+06  8.2951E+08  1.0943E+09
   2  2.0219E+08  1.4259E+06  1.2099E+09  1.5304E+09

         WATER    CONNECTED LAKE   CHANGE       PERCENT
 LAKE     USE         INFLUX       IN VOL.    DISCREPANCY
   1   0.0000E+00   0.0000E+00  -8.1086E+07      0.000
   2   0.0000E+00   0.0000E+00  -1.1275E+08      0.000
 --------------------------------------------------------------------------------

 
 SOLVING FOR HEAD 
     4 ITERATIONS FOR TIME STEP 138 IN STRESS PERIOD    1

 HEAD/DRAWDOWN PRINTOUT FLAG = 0     TOTAL BUDGET PRINTOUT FLAG = 0
 CELL-BY-CELL FLOW TERM FLAG = 1

 OUTPUT FLAGS FOR ALL LAYERS ARE THE SAME:
   HEAD    DRAWDOWN  HEAD  DRAWDOWN
 PRINTOUT  PRINTOUT  SAVE    SAVE
 ----------------------------------
     0         0       0       0



 STREAM LISTING     PERIOD      1   STEP      138

 LAYER ROW COL. STREAM  RCH.  FLOW INTO     FLOW TO   FLOW OUT OF   OVRLND.     DIRECT     STREAM       STREAM     STREAM     STREAM   STREAMBED  STREAMBED
                SEG.NO.  NO.  STRM. RCH.    AQUIFER    STRM. RCH.    RUNOFF     PRECIP       ET          HEAD       DEPTH      WIDTH   CONDCTNC.   GRADIENT

   1    2    5     1     1    6.9120E+05 -8.0011E+04   7.7121E+05  0.000E+00  0.000E+00  0.000E+00  1.25330E+02  1.382E+00  5.000E+00  5.000E+03 -3.200E+01
   1    3    5     1     2    7.7121E+05 -5.6307E+04   8.2752E+05  0.000E+00  0.000E+00  0.000E+00  1.24303E+02  1.458E+00  5.000E+00  5.000E+03 -2.252E+01
   1    4    5     1     3    8.2752E+05 -5.3240E+04   8.8076E+05  0.000E+00  0.000E+00  0.000E+00  1.23258E+02  1.517E+00  5.000E+00  5.000E+03 -2.130E+01
   1    4    6     1     4    8.8076E+05 -4.3510E+04   9.2427E+05  0.000E+00  0.000E+00  0.000E+00  1.22206E+02  1.568E+00  5.000E+00  5.000E+03 -1.740E+01
   1    4    7     1     5    9.2427E+05 -2.1188E+04   9.4546E+05  0.000E+00  0.000E+00  0.000E+00  1.21412E+02  1.601E+00  5.000E+00  2.500E+03 -1.695E+01
   1    4    8     1     6    9.4546E+05 -3.4799E+04   9.8025E+05  0.000E+00  0.000E+00  0.000E+00  1.20751E+02  1.630E+00  5.000E+00  3.750E+03 -1.856E+01
   1    5    8     1     7    9.8025E+05 -3.6690E+04   1.0169E+06  0.000E+00  0.000E+00  0.000E+00  1.19821E+02  1.666E+00  5.000E+00  5.000E+03 -1.468E+01
   1    6    8     1     8    1.0169E+06 -2.5258E+04   1.0422E+06  0.000E+00  0.000E+00  0.000E+00  1.18749E+02  1.697E+00  5.000E+00  5.000E+03 -1.010E+01
   1   12    9     2     1    1.3444E+06 -2.7051E+04   1.3714E+06  0.000E+00  0.000E+00  0.000E+00  1.16629E+02  2.190E+00  5.000E+00  5.000E+03 -1.082E+01
   1   13    9     2     2    1.3714E+06 -4.2553E+04   1.4140E+06  0.000E+00  0.000E+00  0.000E+00  1.15842E+02  2.223E+00  5.000E+00  5.000E+03 -1.702E+01
   1   14   10     2     3    1.4140E+06 -2.2973E+04   1.4370E+06  0.000E+00  0.000E+00  0.000E+00  1.15234E+02  2.254E+00  5.000E+00  2.795E+03 -1.644E+01
   1   14   10     2     4    1.4370E+06 -2.4193E+04   1.4612E+06  0.000E+00  0.000E+00  0.000E+00  1.14797E+02  2.277E+00  5.000E+00  2.795E+03 -1.731E+01
   1   15   10     2     5    1.4612E+06 -4.0633E+04   1.5018E+06  0.000E+00  0.000E+00  0.000E+00  1.14188E+02  2.307E+00  5.000E+00  5.000E+03 -1.625E+01
   1   16   10     2     6    1.5018E+06 -2.7168E+04   1.5290E+06  0.000E+00  0.000E+00  0.000E+00  1.13399E+02  2.339E+00  5.000E+00  5.000E+03 -1.087E+01
   1   22   10     3     1    1.8566E+06 -2.7714E+04   1.8843E+06  0.000E+00  0.000E+00  0.000E+00  1.11498E+02  2.543E+00  5.000E+00  5.000E+03 -1.109E+01
   1   23   10     3     2    1.8843E+06 -3.9961E+04   1.9243E+06  0.000E+00  0.000E+00  0.000E+00  1.10698E+02  2.570E+00  5.000E+00  3.750E+03 -2.131E+01
   1   23   11     3     3    1.9243E+06 -2.3692E+04   1.9480E+06  0.000E+00  0.000E+00  0.000E+00  1.10133E+02  2.596E+00  5.000E+00  2.500E+03 -1.895E+01
   1   23   12     3     4    1.9480E+06 -4.7018E+04   1.9950E+06  0.000E+00  0.000E+00  0.000E+00  1.09452E+02  2.624E+00  5.000E+00  5.000E+03 -1.881E+01
   1   23   13     3     5    1.9950E+06 -5.0665E+04   2.0457E+06  0.000E+00  0.000E+00  0.000E+00  1.08545E+02  2.663E+00  5.000E+00  5.000E+03 -2.027E+01
   1   23   14     3     6    2.0457E+06 -5.4410E+04   2.1001E+06  0.000E+00  0.000E+00  0.000E+00  1.07640E+02  2.704E+00  5.000E+00  5.000E+03 -2.176E+01
   1   23   15     3     7    2.1001E+06 -6.1792E+04   2.1619E+06  0.000E+00  0.000E+00  0.000E+00  1.06740E+02  2.750E+00  5.000E+00  5.000E+03 -2.472E+01
   1   23   16     3     8    2.1619E+06 -9.0009E+04   2.2519E+06  0.000E+00  0.000E+00  0.000E+00  1.05852E+02  2.808E+00  5.000E+00  5.000E+03 -3.600E+01





     0  LAKE CELLS ARE DRY.

 PERIOD     1     TIME STEP   138     TIME STEP LENGTH  8.6782E+00
 PERIOD TIME  8.6791E+02     TOTAL SIMULATION TIME  8.6791E+02


                 HYDROLOGIC BUDGET SUMMARIES FOR SIMULATED LAKES
     (ALL FLUID FLUXES ARE VOLUMES ADDED TO THE LAKE DURING PRESENT TIME STEP)
     -------------------------------------------------------------------------
 LAKE    STAGE         VOLUME     VOL.CHANGE      PRECIP     EVAPORATION        RUNOFF
   1   117.0264     8.5164E+07    1.1440E+03    6.2917E+05    5.5866E+05    0.0000E+00
   2   111.9600     5.3499E+07    2.4960E+03    6.2917E+05    5.5866E+05    0.0000E+00

            GROUND WATER            SURFACE WATER        WATER
 LAKE    INFLOW     OUTFLOW      INFLOW     OUTFLOW       USE
   1  2.5532E+06  0.0000E+00  9.0445E+06  1.1667E+07  0.0000E+00
   2  2.7754E+06  0.0000E+00  1.3269E+07  1.6112E+07  0.0000E+00

      CONNECTED LAKE   TIME-STEP         STAGE-CHANGE          PERCENT
 LAKE    INFLUX      SURFACE AREA   TIME STEP  CUMULATIVE    DISCREPANCY
   1   0.0000E+00     6.2500E+06   1.8332E-04 -1.2974E+01       0.000
   2   0.0000E+00     6.2500E+06   3.9912E-04 -1.8040E+01       0.000
 --------------------------------------------------------------------------------



            CUMULATIVE HYDROLOGIC BUDGET SUMMARIES FOR SIMULATED LAKES
     (ALL FLUID FLUXES ARE SUMS OF VOLUMES ADDED TO THE LAKE SINCE INITIAL TIME)
     ---------------------------------------------------------------------------
 LAKE       PRECIP       EVAP       RUNOFF
   1     6.2923E+07  5.5871E+07  0.0000E+00
   2     6.2923E+07  5.5871E+07  0.0000E+00

            GROUND WATER            SURFACE WATER
 LAKE    INFLOW     OUTFLOW      INFLOW     OUTFLOW
   1  1.8089E+08  1.5644E+06  8.3855E+08  1.1060E+09
   2  2.0496E+08  1.4259E+06  1.2232E+09  1.5465E+09

         WATER    CONNECTED LAKE   CHANGE       PERCENT
 LAKE     USE         INFLUX       IN VOL.    DISCREPANCY
   1   0.0000E+00   0.0000E+00  -8.1084E+07      0.000
   2   0.0000E+00   0.0000E+00  -1.1275E+08      0.000
 --------------------------------------------------------------------------------

 
 SOLVING FOR HEAD 
     4 ITERATIONS FOR TIME STEP 139 IN STRESS PERIOD    1

 HEAD/DRAWDOWN PRINTOUT FLAG = 0     TOTAL BUDGET PRINTOUT FLAG = 0
 CELL-BY-CELL FLOW TERM FLAG = 1

 OUTPUT FLAGS FOR ALL LAYERS ARE THE SAME:
   HEAD    DRAWDOWN  HEAD  DRAWDOWN
 PRINTOUT  PRINTOUT  SAVE    SAVE
 ----------------------------------
     0         0       0       0



 STREAM LISTING     PERIOD      1   STEP      139

 LAYER ROW COL. STREAM  RCH.  FLOW INTO     FLOW TO   FLOW OUT OF   OVRLND.     DIRECT     STREAM       STREAM     STREAM     STREAM   STREAMBED  STREAMBED
                SEG.NO.  NO.  STRM. RCH.    AQUIFER    STRM. RCH.    RUNOFF     PRECIP       ET          HEAD       DEPTH      WIDTH   CONDCTNC.   GRADIENT

   1    2    5     1     1    6.9120E+05 -8.0012E+04   7.7121E+05  0.000E+00  0.000E+00  0.000E+00  1.25330E+02  1.382E+00  5.000E+00  5.000E+03 -3.200E+01
   1    3    5     1     2    7.7121E+05 -5.6310E+04   8.2752E+05  0.000E+00  0.000E+00  0.000E+00  1.24303E+02  1.458E+00  5.000E+00  5.000E+03 -2.252E+01
   1    4    5     1     3    8.2752E+05 -5.3248E+04   8.8077E+05  0.000E+00  0.000E+00  0.000E+00  1.23258E+02  1.517E+00  5.000E+00  5.000E+03 -2.130E+01
   1    4    6     1     4    8.8077E+05 -4.3517E+04   9.2429E+05  0.000E+00  0.000E+00  0.000E+00  1.22206E+02  1.568E+00  5.000E+00  5.000E+03 -1.741E+01
   1    4    7     1     5    9.2429E+05 -2.1192E+04   9.4548E+05  0.000E+00  0.000E+00  0.000E+00  1.21412E+02  1.601E+00  5.000E+00  2.500E+03 -1.695E+01
   1    4    8     1     6    9.4548E+05 -3.4804E+04   9.8028E+05  0.000E+00  0.000E+00  0.000E+00  1.20751E+02  1.630E+00  5.000E+00  3.750E+03 -1.856E+01
   1    5    8     1     7    9.8028E+05 -3.6699E+04   1.0170E+06  0.000E+00  0.000E+00  0.000E+00  1.19821E+02  1.666E+00  5.000E+00  5.000E+03 -1.468E+01
   1    6    8     1     8    1.0170E+06 -2.5265E+04   1.0422E+06  0.000E+00  0.000E+00  0.000E+00  1.18749E+02  1.697E+00  5.000E+00  5.000E+03 -1.011E+01
   1   12    9     2     1    1.3446E+06 -2.7066E+04   1.3716E+06  0.000E+00  0.000E+00  0.000E+00  1.16629E+02  2.190E+00  5.000E+00  5.000E+03 -1.083E+01
   1   13    9     2     2    1.3716E+06 -4.2580E+04   1.4142E+06  0.000E+00  0.000E+00  0.000E+00  1.15842E+02  2.223E+00  5.000E+00  5.000E+03 -1.703E+01
   1   14   10     2     3    1.4142E+06 -2.2988E+04   1.4372E+06  0.000E+00  0.000E+00  0.000E+00  1.15234E+02  2.255E+00  5.000E+00  2.795E+03 -1.645E+01
   1   14   10     2     4    1.4372E+06 -2.4208E+04   1.4614E+06  0.000E+00  0.000E+00  0.000E+00  1.14797E+02  2.277E+00  5.000E+00  2.795E+03 -1.732E+01
   1   15   10     2     5    1.4614E+06 -4.0659E+04   1.5021E+06  0.000E+00  0.000E+00  0.000E+00  1.14188E+02  2.307E+00  5.000E+00  5.000E+03 -1.626E+01
   1   16   10     2     6    1.5021E+06 -2.7185E+04   1.5293E+06  0.000E+00  0.000E+00  0.000E+00  1.13399E+02  2.339E+00  5.000E+00  5.000E+03 -1.087E+01
   1   22   10     3     1    1.8571E+06 -2.7723E+04   1.8848E+06  0.000E+00  0.000E+00  0.000E+00  1.11499E+02  2.543E+00  5.000E+00  5.000E+03 -1.109E+01
   1   23   10     3     2    1.8848E+06 -3.9971E+04   1.9248E+06  0.000E+00  0.000E+00  0.000E+00  1.10699E+02  2.571E+00  5.000E+00  3.750E+03 -2.132E+01
   1   23   11     3     3    1.9248E+06 -2.3697E+04   1.9485E+06  0.000E+00  0.000E+00  0.000E+00  1.10133E+02  2.596E+00  5.000E+00  2.500E+03 -1.896E+01
   1   23   12     3     4    1.9485E+06 -4.7027E+04   1.9955E+06  0.000E+00  0.000E+00  0.000E+00  1.09452E+02  2.625E+00  5.000E+00  5.000E+03 -1.881E+01
   1   23   13     3     5    1.9955E+06 -5.0674E+04   2.0462E+06  0.000E+00  0.000E+00  0.000E+00  1.08545E+02  2.663E+00  5.000E+00  5.000E+03 -2.027E+01
   1   23   14     3     6    2.0462E+06 -5.4417E+04   2.1006E+06  0.000E+00  0.000E+00  0.000E+00  1.07641E+02  2.705E+00  5.000E+00  5.000E+03 -2.177E+01
   1   23   15     3     7    2.1006E+06 -6.1796E+04   2.1624E+06  0.000E+00  0.000E+00  0.000E+00  1.06740E+02  2.750E+00  5.000E+00  5.000E+03 -2.472E+01
   1   23   16     3     8    2.1624E+06 -9.0010E+04   2.2524E+06  0.000E+00  0.000E+00  0.000E+00  1.05853E+02  2.808E+00  5.000E+00  5.000E+03 -3.600E+01





     0  LAKE CELLS ARE DRY.

 PERIOD     1     TIME STEP   139     TIME STEP LENGTH  8.7216E+00
 PERIOD TIME  8.7663E+02     TOTAL SIMULATION TIME  8.7663E+02


                 HYDROLOGIC BUDGET SUMMARIES FOR SIMULATED LAKES
     (ALL FLUID FLUXES ARE VOLUMES ADDED TO THE LAKE DURING PRESENT TIME STEP)
     -------------------------------------------------------------------------
 LAKE    STAGE         VOLUME     VOL.CHANGE      PRECIP     EVAPORATION        RUNOFF
   1   117.0265     8.5165E+07    1.0720E+03    6.3232E+05    5.6145E+05    0.0000E+00
   2   111.9604     5.3502E+07    2.3640E+03    6.3232E+05    5.6145E+05    0.0000E+00

            GROUND WATER            SURFACE WATER        WATER
 LAKE    INFLOW     OUTFLOW      INFLOW     OUTFLOW       USE
   1  2.5670E+06  0.0000E+00  9.0901E+06  1.1727E+07  0.0000E+00
   2  2.7906E+06  0.0000E+00  1.3338E+07  1.6197E+07  0.0000E+00

      CONNECTED LAKE   TIME-STEP         STAGE-CHANGE          PERCENT
 LAKE    INFLUX      SURFACE AREA   TIME STEP  CUMULATIVE    DISCREPANCY
   1   0.0000E+00     6.2500E+06   1.7133E-04 -1.2973E+01       0.000
   2   0.0000E+00     6.2500E+06   3.7813E-04 -1.8040E+01       0.000
 --------------------------------------------------------------------------------



            CUMULATIVE HYDROLOGIC BUDGET SUMMARIES FOR SIMULATED LAKES
     (ALL FLUID FLUXES ARE SUMS OF VOLUMES ADDED TO THE LAKE SINCE INITIAL TIME)
     ---------------------------------------------------------------------------
 LAKE       PRECIP       EVAP       RUNOFF
   1     6.3556E+07  5.6433E+07  0.0000E+00
   2     6.3556E+07  5.6433E+07  0.0000E+00

            GROUND WATER            SURFACE WATER
 LAKE    INFLOW     OUTFLOW      INFLOW     OUTFLOW
   1  1.8346E+08  1.5644E+06  8.4764E+08  1.1177E+09
   2  2.0775E+08  1.4259E+06  1.2365E+09  1.5627E+09

         WATER    CONNECTED LAKE   CHANGE       PERCENT
 LAKE     USE         INFLUX       IN VOL.    DISCREPANCY
   1   0.0000E+00   0.0000E+00  -8.1083E+07      0.000
   2   0.0000E+00   0.0000E+00  -1.1275E+08      0.000
 --------------------------------------------------------------------------------

 
 SOLVING FOR HEAD 
     4 ITERATIONS FOR TIME STEP 140 IN STRESS PERIOD    1

 HEAD/DRAWDOWN PRINTOUT FLAG = 1     TOTAL BUDGET PRINTOUT FLAG = 1
 CELL-BY-CELL FLOW TERM FLAG = 1

 OUTPUT FLAGS FOR EACH LAYER:
          HEAD    DRAWDOWN  HEAD  DRAWDOWN
 LAYER  PRINTOUT  PRINTOUT  SAVE    SAVE
 -----------------------------------------
    1       0         0       0       0
    2       0         0       0       0
    3       0         0       0       0
    4       0         0       0       0
    5       1         0       0       0



 STREAM LISTING     PERIOD      1   STEP      140

 LAYER ROW COL. STREAM  RCH.  FLOW INTO     FLOW TO   FLOW OUT OF   OVRLND.     DIRECT     STREAM       STREAM     STREAM     STREAM   STREAMBED  STREAMBED
                SEG.NO.  NO.  STRM. RCH.    AQUIFER    STRM. RCH.    RUNOFF     PRECIP       ET          HEAD       DEPTH      WIDTH   CONDCTNC.   GRADIENT

   1    2    5     1     1    6.9120E+05 -8.0013E+04   7.7121E+05  0.000E+00  0.000E+00  0.000E+00  1.25330E+02  1.382E+00  5.000E+00  5.000E+03 -3.201E+01
   1    3    5     1     2    7.7121E+05 -5.6314E+04   8.2753E+05  0.000E+00  0.000E+00  0.000E+00  1.24303E+02  1.458E+00  5.000E+00  5.000E+03 -2.253E+01
   1    4    5     1     3    8.2753E+05 -5.3256E+04   8.8078E+05  0.000E+00  0.000E+00  0.000E+00  1.23258E+02  1.517E+00  5.000E+00  5.000E+03 -2.130E+01
   1    4    6     1     4    8.8078E+05 -4.3524E+04   9.2431E+05  0.000E+00  0.000E+00  0.000E+00  1.22206E+02  1.568E+00  5.000E+00  5.000E+03 -1.741E+01
   1    4    7     1     5    9.2431E+05 -2.1195E+04   9.4550E+05  0.000E+00  0.000E+00  0.000E+00  1.21412E+02  1.601E+00  5.000E+00  2.500E+03 -1.696E+01
   1    4    8     1     6    9.4550E+05 -3.4808E+04   9.8031E+05  0.000E+00  0.000E+00  0.000E+00  1.20751E+02  1.630E+00  5.000E+00  3.750E+03 -1.856E+01
   1    5    8     1     7    9.8031E+05 -3.6707E+04   1.0170E+06  0.000E+00  0.000E+00  0.000E+00  1.19821E+02  1.666E+00  5.000E+00  5.000E+03 -1.468E+01
   1    6    8     1     8    1.0170E+06 -2.5272E+04   1.0423E+06  0.000E+00  0.000E+00  0.000E+00  1.18749E+02  1.697E+00  5.000E+00  5.000E+03 -1.011E+01
   1   12    9     2     1    1.3447E+06 -2.7080E+04   1.3718E+06  0.000E+00  0.000E+00  0.000E+00  1.16630E+02  2.190E+00  5.000E+00  5.000E+03 -1.083E+01
   1   13    9     2     2    1.3718E+06 -4.2606E+04   1.4144E+06  0.000E+00  0.000E+00  0.000E+00  1.15842E+02  2.223E+00  5.000E+00  5.000E+03 -1.704E+01
   1   14   10     2     3    1.4144E+06 -2.3002E+04   1.4374E+06  0.000E+00  0.000E+00  0.000E+00  1.15234E+02  2.255E+00  5.000E+00  2.795E+03 -1.646E+01
   1   14   10     2     4    1.4374E+06 -2.4222E+04   1.4617E+06  0.000E+00  0.000E+00  0.000E+00  1.14798E+02  2.277E+00  5.000E+00  2.795E+03 -1.733E+01
   1   15   10     2     5    1.4617E+06 -4.0683E+04   1.5023E+06  0.000E+00  0.000E+00  0.000E+00  1.14188E+02  2.307E+00  5.000E+00  5.000E+03 -1.627E+01
   1   16   10     2     6    1.5023E+06 -2.7200E+04   1.5295E+06  0.000E+00  0.000E+00  0.000E+00  1.13399E+02  2.339E+00  5.000E+00  5.000E+03 -1.088E+01
   1   22   10     3     1    1.8575E+06 -2.7730E+04   1.8853E+06  0.000E+00  0.000E+00  0.000E+00  1.11499E+02  2.543E+00  5.000E+00  5.000E+03 -1.109E+01
   1   23   10     3     2    1.8853E+06 -3.9979E+04   1.9252E+06  0.000E+00  0.000E+00  0.000E+00  1.10699E+02  2.571E+00  5.000E+00  3.750E+03 -2.132E+01
   1   23   11     3     3    1.9252E+06 -2.3701E+04   1.9489E+06  0.000E+00  0.000E+00  0.000E+00  1.10134E+02  2.597E+00  5.000E+00  2.500E+03 -1.896E+01
   1   23   12     3     4    1.9489E+06 -4.7035E+04   1.9960E+06  0.000E+00  0.000E+00  0.000E+00  1.09453E+02  2.625E+00  5.000E+00  5.000E+03 -1.881E+01
   1   23   13     3     5    1.9960E+06 -5.0682E+04   2.0467E+06  0.000E+00  0.000E+00  0.000E+00  1.08546E+02  2.664E+00  5.000E+00  5.000E+03 -2.027E+01
   1   23   14     3     6    2.0467E+06 -5.4423E+04   2.1011E+06  0.000E+00  0.000E+00  0.000E+00  1.07641E+02  2.705E+00  5.000E+00  5.000E+03 -2.177E+01
   1   23   15     3     7    2.1011E+06 -6.1800E+04   2.1629E+06  0.000E+00  0.000E+00  0.000E+00  1.06741E+02  2.750E+00  5.000E+00  5.000E+03 -2.472E+01
   1   23   16     3     8    2.1629E+06 -9.0011E+04   2.2529E+06  0.000E+00  0.000E+00  0.000E+00  1.05853E+02  2.809E+00  5.000E+00  5.000E+03 -3.600E+01





     0  LAKE CELLS ARE DRY.

 PERIOD     1     TIME STEP   140     TIME STEP LENGTH  8.7652E+00
 PERIOD TIME  8.8539E+02     TOTAL SIMULATION TIME  8.8539E+02


                 HYDROLOGIC BUDGET SUMMARIES FOR SIMULATED LAKES
     (ALL FLUID FLUXES ARE VOLUMES ADDED TO THE LAKE DURING PRESENT TIME STEP)
     -------------------------------------------------------------------------
 LAKE    STAGE         VOLUME     VOL.CHANGE      PRECIP     EVAPORATION        RUNOFF
   1   117.0267     8.5166E+07    1.0160E+03    6.3548E+05    5.6426E+05    0.0000E+00
   2   111.9608     5.3504E+07    2.2360E+03    6.3548E+05    5.6426E+05    0.0000E+00

            GROUND WATER            SURFACE WATER        WATER
 LAKE    INFLOW     OUTFLOW      INFLOW     OUTFLOW       USE
   1  2.5809E+06  0.0000E+00  9.1359E+06  1.1787E+07  0.0000E+00
   2  2.8059E+06  0.0000E+00  1.3407E+07  1.6282E+07  0.0000E+00

      CONNECTED LAKE   TIME-STEP         STAGE-CHANGE          PERCENT
 LAKE    INFLUX      SURFACE AREA   TIME STEP  CUMULATIVE    DISCREPANCY
   1   0.0000E+00     6.2500E+06   1.6228E-04 -1.2973E+01       0.000
   2   0.0000E+00     6.2500E+06   3.5771E-04 -1.8039E+01       0.000
 --------------------------------------------------------------------------------



            CUMULATIVE HYDROLOGIC BUDGET SUMMARIES FOR SIMULATED LAKES
     (ALL FLUID FLUXES ARE SUMS OF VOLUMES ADDED TO THE LAKE SINCE INITIAL TIME)
     ---------------------------------------------------------------------------
 LAKE       PRECIP       EVAP       RUNOFF
   1     6.4191E+07  5.6997E+07  0.0000E+00
   2     6.4191E+07  5.6997E+07  0.0000E+00

            GROUND WATER            SURFACE WATER
 LAKE    INFLOW     OUTFLOW      INFLOW     OUTFLOW
   1  1.8604E+08  1.5644E+06  8.5678E+08  1.1295E+09
   2  2.1056E+08  1.4259E+06  1.2499E+09  1.5790E+09

         WATER    CONNECTED LAKE   CHANGE       PERCENT
 LAKE     USE         INFLUX       IN VOL.    DISCREPANCY
   1   0.0000E+00   0.0000E+00  -8.1082E+07      0.000
   2   0.0000E+00   0.0000E+00  -1.1274E+08      0.000
 --------------------------------------------------------------------------------

1
              HEAD IN LAYER   5 AT END OF TIME STEP 140 IN STRESS PERIOD    1
  ---------------------------------------------------------------------------

          1      2      3      4      5      6      7      8      9     10
 .........................................................................
   1   160.0  158.9  157.3  155.8  154.2  152.7  151.5  150.8  150.0  149.2
   2   160.0  158.2  155.3  151.1  141.4  146.7  147.2  147.1  146.9  146.6
   3   160.0  157.5  153.5  147.6  135.6  139.9  140.8  141.3  142.1  142.7
   4   160.0  157.3  152.9  146.7  133.9  130.9  129.9  130.1  135.4  138.2
   5   160.0  157.3  153.2  148.3  141.8  136.1  131.2  127.2  131.5  134.4
   6   160.0  157.4  153.5  149.2  143.6  136.1  128.4  123.8  126.1  128.1
   7   160.0  157.5  153.7  149.4  143.6  133.5  117.9  117.3  117.3  117.4
   8   160.0  157.5  153.8  149.5  143.6  132.8  117.5  117.1  117.0  117.1
   9   160.0  157.5  153.8  149.7  143.7  132.7  117.5  117.0  117.0  117.0
  10   160.0  157.5  153.9  149.9  144.0  133.2  117.6  117.1  117.0  117.0
  11   160.0  157.6  154.0  150.1  144.6  134.6  118.0  117.3  117.2  117.3
  12   160.0  157.6  154.2  150.5  145.7  138.6  130.7  126.4  122.1  124.9
  13   160.0  157.7  154.3  150.9  146.8  141.3  135.6  130.8  124.4  127.7
  14   160.0  157.7  154.4  151.0  147.2  142.2  137.4  133.5  128.8  123.5
  15   160.0  157.7  154.3  150.8  146.7  141.2  136.0  132.1  127.7  122.4
  16   160.0  157.6  154.1  150.4  145.3  137.6  129.3  125.4  122.2  118.9
  17   160.0  157.6  154.0  150.0  144.1  132.6  113.1  112.4  112.3  112.2
  18   160.0  157.6  154.0  149.8  143.6  131.0  112.6  112.0  112.0  112.0
  19   160.0  157.6  154.0  149.8  143.4  130.6  112.6  112.0  112.0  112.0
  20   160.0  157.6  154.1  150.0  143.7  131.2  112.6  112.0  112.0  112.0
  21   160.0  157.6  154.2  150.2  144.4  133.0  113.2  112.4  112.3  112.1
  22   160.0  157.7  154.4  150.9  146.1  138.6  130.2  126.0  122.0  117.1
  23   160.0  157.9  154.9  151.8  148.2  143.5  138.8  135.0  129.8  121.4
  24   160.0  158.0  155.3  152.8  150.0  146.7  143.9  141.8  139.5  137.2
  25   160.0  158.2  155.9  153.7  151.5  149.1  147.2  145.9  144.5  143.3
  26   160.0  158.5  156.6  154.8  153.0  151.2  149.8  148.8  147.9  147.0
  27   160.0  158.9  157.3  155.8  154.2  152.7  151.5  150.8  150.0  149.2
1
              HEAD IN LAYER   5 AT END OF TIME STEP 140 IN STRESS PERIOD    1
  ---------------------------------------------------------------------------

         11     12     13     14     15     16     17
 ....................................................
   1   148.5  147.3  145.8  144.2  142.7  141.1  140.0
   2   146.2  145.5  144.4  143.1  141.8  140.5  140.0
   3   143.1  143.3  142.8  141.9  141.0  140.1  140.0
   4   139.7  141.0  141.4  141.0  140.4  139.9  140.0
   5   136.4  138.6  140.0  140.2  140.0  139.8  140.0
   6   130.4  135.1  138.3  139.5  139.6  139.7  140.0
   7   117.9  131.2  137.1  139.0  139.4  139.6  140.0
   8   117.5  129.9  136.5  138.7  139.3  139.6  140.0
   9   117.4  129.4  136.3  138.6  139.3  139.5  140.0
  10   117.4  129.6  136.3  138.5  139.2  139.5  140.0
  11   117.8  130.4  136.5  138.6  139.2  139.5  140.0
  12   127.9  133.3  137.2  138.8  139.3  139.5  140.0
  13   130.9  134.9  137.8  138.9  139.3  139.5  140.0
  14   129.2  134.6  137.6  138.8  139.2  139.5  140.0
  15   127.6  133.4  137.0  138.5  139.0  139.4  140.0
  16   123.5  130.7  135.8  137.9  138.7  139.3  140.0
  17   112.8  127.0  134.4  137.1  138.2  139.1  140.0
  18   112.4  125.6  133.6  136.5  137.8  138.9  140.0
  19   112.4  124.8  132.8  135.8  137.2  138.6  140.0
  20   112.4  124.3  131.9  134.8  136.3  138.1  140.0
  21   112.6  124.0  130.7  133.3  134.9  137.2  140.0
  22   119.7  124.1  127.9  129.9  131.4  134.8  140.0
  23   119.6  118.9  118.7  118.6  119.1  123.9  140.0
  24   135.7  134.1  132.9  132.2  132.5  135.2  140.0
  25   142.2  140.8  139.3  138.3  137.8  138.5  140.0
  26   146.1  144.9  143.4  142.0  140.9  140.1  140.0
  27   148.5  147.3  145.8  144.2  142.7  141.1  140.0
1
  VOLUMETRIC BUDGET FOR ENTIRE MODEL AT END OF TIME STEP140 IN STRESS PERIOD   1
  ------------------------------------------------------------------------------

     CUMULATIVE VOLUMES      L**3       RATES FOR THIS TIME STEP      L**3/T
     ------------------                 ------------------------

           IN:                                      IN:
           ---                                      ---
             STORAGE =     2934567.7500               STORAGE =           0.0000
       CONSTANT HEAD =   974842240.0000         CONSTANT HEAD =      544510.0000
                  ET =           0.0000                    ET =           0.0000
            RECHARGE =  2439257088.0000              RECHARGE =     2755000.0000
     SPECIFIED FLOWS =           0.0000       SPECIFIED FLOWS =           0.0000
      STREAM LEAKAGE =     3694574.2500        STREAM LEAKAGE =           0.0000
       LAKE  SEEPAGE =     2990331.7500         LAKE  SEEPAGE =           0.0000

            TOTAL IN =  3423718912.0000              TOTAL IN =     3299510.0000

          OUT:                                     OUT:
          ----                                     ----
             STORAGE =  1268953856.0000               STORAGE =       22351.7988
       CONSTANT HEAD =     1261307.3750         CONSTANT HEAD =        2723.8083
                  ET =  1081431040.0000                    ET =     1728598.5000
            RECHARGE =           0.0000              RECHARGE =           0.0000
     SPECIFIED FLOWS =           0.0000       SPECIFIED FLOWS =           0.0000
      STREAM LEAKAGE =   675471360.0000        STREAM LEAKAGE =      931245.7500
       LAKE  SEEPAGE =   396594496.0000         LAKE  SEEPAGE =      614561.9375

           TOTAL OUT =  3423712000.0000             TOTAL OUT =     3299481.7500

            IN - OUT =        6912.0000              IN - OUT =          28.2500

 PERCENT DISCREPANCY =           0.00     PERCENT DISCREPANCY =           0.00






          TIME SUMMARY AT END OF TIME STEP 140 IN STRESS PERIOD    1
                    SECONDS     MINUTES      HOURS       DAYS        YEARS
                    -----------------------------------------------------------
   TIME STEP LENGTH 7.57314E+05  12622.      210.37      8.7652     2.39978E-02
 STRESS PERIOD TIME 7.64979E+07 1.27497E+06  21249.      885.39      2.4241    
         TOTAL TIME 7.64979E+07 1.27497E+06  21249.      885.39      2.4241    
1
 
 SOLVING FOR HEAD 
     4 ITERATIONS FOR TIME STEP 141 IN STRESS PERIOD    1

 HEAD/DRAWDOWN PRINTOUT FLAG = 0     TOTAL BUDGET PRINTOUT FLAG = 0
 CELL-BY-CELL FLOW TERM FLAG = 1

 OUTPUT FLAGS FOR ALL LAYERS ARE THE SAME:
   HEAD    DRAWDOWN  HEAD  DRAWDOWN
 PRINTOUT  PRINTOUT  SAVE    SAVE
 ----------------------------------
     0         0       0       0



 STREAM LISTING     PERIOD      1   STEP      141

 LAYER ROW COL. STREAM  RCH.  FLOW INTO     FLOW TO   FLOW OUT OF   OVRLND.     DIRECT     STREAM       STREAM     STREAM     STREAM   STREAMBED  STREAMBED
                SEG.NO.  NO.  STRM. RCH.    AQUIFER    STRM. RCH.    RUNOFF     PRECIP       ET          HEAD       DEPTH      WIDTH   CONDCTNC.   GRADIENT

   1    2    5     1     1    6.9120E+05 -8.0014E+04   7.7121E+05  0.000E+00  0.000E+00  0.000E+00  1.25330E+02  1.382E+00  5.000E+00  5.000E+03 -3.201E+01
   1    3    5     1     2    7.7121E+05 -5.6317E+04   8.2753E+05  0.000E+00  0.000E+00  0.000E+00  1.24303E+02  1.458E+00  5.000E+00  5.000E+03 -2.253E+01
   1    4    5     1     3    8.2753E+05 -5.3263E+04   8.8079E+05  0.000E+00  0.000E+00  0.000E+00  1.23258E+02  1.517E+00  5.000E+00  5.000E+03 -2.131E+01
   1    4    6     1     4    8.8079E+05 -4.3531E+04   9.2433E+05  0.000E+00  0.000E+00  0.000E+00  1.22206E+02  1.568E+00  5.000E+00  5.000E+03 -1.741E+01
   1    4    7     1     5    9.2433E+05 -2.1198E+04   9.4552E+05  0.000E+00  0.000E+00  0.000E+00  1.21412E+02  1.601E+00  5.000E+00  2.500E+03 -1.696E+01
   1    4    8     1     6    9.4552E+05 -3.4813E+04   9.8034E+05  0.000E+00  0.000E+00  0.000E+00  1.20751E+02  1.630E+00  5.000E+00  3.750E+03 -1.857E+01
   1    5    8     1     7    9.8034E+05 -3.6715E+04   1.0171E+06  0.000E+00  0.000E+00  0.000E+00  1.19821E+02  1.666E+00  5.000E+00  5.000E+03 -1.469E+01
   1    6    8     1     8    1.0171E+06 -2.5279E+04   1.0423E+06  0.000E+00  0.000E+00  0.000E+00  1.18749E+02  1.697E+00  5.000E+00  5.000E+03 -1.011E+01
   1   12    9     2     1    1.3449E+06 -2.7093E+04   1.3720E+06  0.000E+00  0.000E+00  0.000E+00  1.16630E+02  2.190E+00  5.000E+00  5.000E+03 -1.084E+01
   1   13    9     2     2    1.3720E+06 -4.2630E+04   1.4146E+06  0.000E+00  0.000E+00  0.000E+00  1.15843E+02  2.224E+00  5.000E+00  5.000E+03 -1.705E+01
   1   14   10     2     3    1.4146E+06 -2.3015E+04   1.4376E+06  0.000E+00  0.000E+00  0.000E+00  1.15234E+02  2.255E+00  5.000E+00  2.795E+03 -1.647E+01
   1   14   10     2     4    1.4376E+06 -2.4235E+04   1.4619E+06  0.000E+00  0.000E+00  0.000E+00  1.14798E+02  2.277E+00  5.000E+00  2.795E+03 -1.734E+01
   1   15   10     2     5    1.4619E+06 -4.0706E+04   1.5026E+06  0.000E+00  0.000E+00  0.000E+00  1.14189E+02  2.308E+00  5.000E+00  5.000E+03 -1.628E+01
   1   16   10     2     6    1.5026E+06 -2.7215E+04   1.5298E+06  0.000E+00  0.000E+00  0.000E+00  1.13400E+02  2.339E+00  5.000E+00  5.000E+03 -1.089E+01
   1   22   10     3     1    1.8579E+06 -2.7738E+04   1.8857E+06  0.000E+00  0.000E+00  0.000E+00  1.11500E+02  2.544E+00  5.000E+00  5.000E+03 -1.110E+01
   1   23   10     3     2    1.8857E+06 -3.9987E+04   1.9257E+06  0.000E+00  0.000E+00  0.000E+00  1.10699E+02  2.571E+00  5.000E+00  3.750E+03 -2.133E+01
   1   23   11     3     3    1.9257E+06 -2.3706E+04   1.9494E+06  0.000E+00  0.000E+00  0.000E+00  1.10134E+02  2.597E+00  5.000E+00  2.500E+03 -1.896E+01
   1   23   12     3     4    1.9494E+06 -4.7043E+04   1.9964E+06  0.000E+00  0.000E+00  0.000E+00  1.09453E+02  2.625E+00  5.000E+00  5.000E+03 -1.882E+01
   1   23   13     3     5    1.9964E+06 -5.0690E+04   2.0471E+06  0.000E+00  0.000E+00  0.000E+00  1.08546E+02  2.664E+00  5.000E+00  5.000E+03 -2.028E+01
   1   23   14     3     6    2.0471E+06 -5.4429E+04   2.1015E+06  0.000E+00  0.000E+00  0.000E+00  1.07642E+02  2.706E+00  5.000E+00  5.000E+03 -2.177E+01
   1   23   15     3     7    2.1015E+06 -6.1804E+04   2.1633E+06  0.000E+00  0.000E+00  0.000E+00  1.06741E+02  2.751E+00  5.000E+00  5.000E+03 -2.472E+01
   1   23   16     3     8    2.1633E+06 -9.0012E+04   2.2533E+06  0.000E+00  0.000E+00  0.000E+00  1.05853E+02  2.809E+00  5.000E+00  5.000E+03 -3.600E+01





     0  LAKE CELLS ARE DRY.

 PERIOD     1     TIME STEP   141     TIME STEP LENGTH  8.8090E+00
 PERIOD TIME  8.9420E+02     TOTAL SIMULATION TIME  8.9420E+02


                 HYDROLOGIC BUDGET SUMMARIES FOR SIMULATED LAKES
     (ALL FLUID FLUXES ARE VOLUMES ADDED TO THE LAKE DURING PRESENT TIME STEP)
     -------------------------------------------------------------------------
 LAKE    STAGE         VOLUME     VOL.CHANGE      PRECIP     EVAPORATION        RUNOFF
   1   117.0269     8.5167E+07    9.6800E+02    6.3866E+05    5.6708E+05    0.0000E+00
   2   111.9611     5.3506E+07    2.1120E+03    6.3866E+05    5.6708E+05    0.0000E+00

            GROUND WATER            SURFACE WATER        WATER
 LAKE    INFLOW     OUTFLOW      INFLOW     OUTFLOW       USE
   1  2.5948E+06  0.0000E+00  9.1819E+06  1.1847E+07  0.0000E+00
   2  2.8212E+06  0.0000E+00  1.3476E+07  1.6367E+07  0.0000E+00

      CONNECTED LAKE   TIME-STEP         STAGE-CHANGE          PERCENT
 LAKE    INFLUX      SURFACE AREA   TIME STEP  CUMULATIVE    DISCREPANCY
   1   0.0000E+00     6.2500E+06   1.5464E-04 -1.2973E+01       0.000
   2   0.0000E+00     6.2500E+06   3.3827E-04 -1.8039E+01       0.000
 --------------------------------------------------------------------------------



            CUMULATIVE HYDROLOGIC BUDGET SUMMARIES FOR SIMULATED LAKES
     (ALL FLUID FLUXES ARE SUMS OF VOLUMES ADDED TO THE LAKE SINCE INITIAL TIME)
     ---------------------------------------------------------------------------
 LAKE       PRECIP       EVAP       RUNOFF
   1     6.4830E+07  5.7564E+07  0.0000E+00
   2     6.4830E+07  5.7564E+07  0.0000E+00

            GROUND WATER            SURFACE WATER
 LAKE    INFLOW     OUTFLOW      INFLOW     OUTFLOW
   1  1.8863E+08  1.5644E+06  8.6596E+08  1.1414E+09
   2  2.1338E+08  1.4259E+06  1.2634E+09  1.5953E+09

         WATER    CONNECTED LAKE   CHANGE       PERCENT
 LAKE     USE         INFLUX       IN VOL.    DISCREPANCY
   1   0.0000E+00   0.0000E+00  -8.1081E+07      0.000
   2   0.0000E+00   0.0000E+00  -1.1274E+08      0.000
 --------------------------------------------------------------------------------

 
 SOLVING FOR HEAD 
     4 ITERATIONS FOR TIME STEP 142 IN STRESS PERIOD    1

 HEAD/DRAWDOWN PRINTOUT FLAG = 0     TOTAL BUDGET PRINTOUT FLAG = 0
 CELL-BY-CELL FLOW TERM FLAG = 1

 OUTPUT FLAGS FOR ALL LAYERS ARE THE SAME:
   HEAD    DRAWDOWN  HEAD  DRAWDOWN
 PRINTOUT  PRINTOUT  SAVE    SAVE
 ----------------------------------
     0         0       0       0



 STREAM LISTING     PERIOD      1   STEP      142

 LAYER ROW COL. STREAM  RCH.  FLOW INTO     FLOW TO   FLOW OUT OF   OVRLND.     DIRECT     STREAM       STREAM     STREAM     STREAM   STREAMBED  STREAMBED
                SEG.NO.  NO.  STRM. RCH.    AQUIFER    STRM. RCH.    RUNOFF     PRECIP       ET          HEAD       DEPTH      WIDTH   CONDCTNC.   GRADIENT

   1    2    5     1     1    6.9120E+05 -8.0015E+04   7.7122E+05  0.000E+00  0.000E+00  0.000E+00  1.25330E+02  1.382E+00  5.000E+00  5.000E+03 -3.201E+01
   1    3    5     1     2    7.7122E+05 -5.6320E+04   8.2754E+05  0.000E+00  0.000E+00  0.000E+00  1.24303E+02  1.458E+00  5.000E+00  5.000E+03 -2.253E+01
   1    4    5     1     3    8.2754E+05 -5.3270E+04   8.8081E+05  0.000E+00  0.000E+00  0.000E+00  1.23258E+02  1.517E+00  5.000E+00  5.000E+03 -2.131E+01
   1    4    6     1     4    8.8081E+05 -4.3537E+04   9.2434E+05  0.000E+00  0.000E+00  0.000E+00  1.22206E+02  1.568E+00  5.000E+00  5.000E+03 -1.741E+01
   1    4    7     1     5    9.2434E+05 -2.1200E+04   9.4554E+05  0.000E+00  0.000E+00  0.000E+00  1.21412E+02  1.601E+00  5.000E+00  2.500E+03 -1.696E+01
   1    4    8     1     6    9.4554E+05 -3.4817E+04   9.8036E+05  0.000E+00  0.000E+00  0.000E+00  1.20751E+02  1.630E+00  5.000E+00  3.750E+03 -1.857E+01
   1    5    8     1     7    9.8036E+05 -3.6722E+04   1.0171E+06  0.000E+00  0.000E+00  0.000E+00  1.19821E+02  1.666E+00  5.000E+00  5.000E+03 -1.469E+01
   1    6    8     1     8    1.0171E+06 -2.5285E+04   1.0424E+06  0.000E+00  0.000E+00  0.000E+00  1.18749E+02  1.697E+00  5.000E+00  5.000E+03 -1.011E+01
   1   12    9     2     1    1.3451E+06 -2.7106E+04   1.3722E+06  0.000E+00  0.000E+00  0.000E+00  1.16630E+02  2.190E+00  5.000E+00  5.000E+03 -1.084E+01
   1   13    9     2     2    1.3722E+06 -4.2653E+04   1.4148E+06  0.000E+00  0.000E+00  0.000E+00  1.15843E+02  2.224E+00  5.000E+00  5.000E+03 -1.706E+01
   1   14   10     2     3    1.4148E+06 -2.3028E+04   1.4378E+06  0.000E+00  0.000E+00  0.000E+00  1.15234E+02  2.255E+00  5.000E+00  2.795E+03 -1.648E+01
   1   14   10     2     4    1.4378E+06 -2.4247E+04   1.4621E+06  0.000E+00  0.000E+00  0.000E+00  1.14798E+02  2.277E+00  5.000E+00  2.795E+03 -1.735E+01
   1   15   10     2     5    1.4621E+06 -4.0728E+04   1.5028E+06  0.000E+00  0.000E+00  0.000E+00  1.14189E+02  2.308E+00  5.000E+00  5.000E+03 -1.629E+01
   1   16   10     2     6    1.5028E+06 -2.7229E+04   1.5300E+06  0.000E+00  0.000E+00  0.000E+00  1.13400E+02  2.340E+00  5.000E+00  5.000E+03 -1.089E+01
   1   22   10     3     1    1.8583E+06 -2.7745E+04   1.8861E+06  0.000E+00  0.000E+00  0.000E+00  1.11500E+02  2.544E+00  5.000E+00  5.000E+03 -1.110E+01
   1   23   10     3     2    1.8861E+06 -3.9995E+04   1.9261E+06  0.000E+00  0.000E+00  0.000E+00  1.10700E+02  2.572E+00  5.000E+00  3.750E+03 -2.133E+01
   1   23   11     3     3    1.9261E+06 -2.3710E+04   1.9498E+06  0.000E+00  0.000E+00  0.000E+00  1.10134E+02  2.597E+00  5.000E+00  2.500E+03 -1.897E+01
   1   23   12     3     4    1.9498E+06 -4.7051E+04   1.9968E+06  0.000E+00  0.000E+00  0.000E+00  1.09453E+02  2.626E+00  5.000E+00  5.000E+03 -1.882E+01
   1   23   13     3     5    1.9968E+06 -5.0697E+04   2.0475E+06  0.000E+00  0.000E+00  0.000E+00  1.08546E+02  2.665E+00  5.000E+00  5.000E+03 -2.028E+01
   1   23   14     3     6    2.0475E+06 -5.4435E+04   2.1020E+06  0.000E+00  0.000E+00  0.000E+00  1.07642E+02  2.706E+00  5.000E+00  5.000E+03 -2.177E+01
   1   23   15     3     7    2.1020E+06 -6.1808E+04   2.1638E+06  0.000E+00  0.000E+00  0.000E+00  1.06741E+02  2.751E+00  5.000E+00  5.000E+03 -2.472E+01
   1   23   16     3     8    2.1638E+06 -9.0013E+04   2.2538E+06  0.000E+00  0.000E+00  0.000E+00  1.05854E+02  2.809E+00  5.000E+00  5.000E+03 -3.601E+01





     0  LAKE CELLS ARE DRY.

 PERIOD     1     TIME STEP   142     TIME STEP LENGTH  8.8531E+00
 PERIOD TIME  9.0305E+02     TOTAL SIMULATION TIME  9.0305E+02


                 HYDROLOGIC BUDGET SUMMARIES FOR SIMULATED LAKES
     (ALL FLUID FLUXES ARE VOLUMES ADDED TO THE LAKE DURING PRESENT TIME STEP)
     -------------------------------------------------------------------------
 LAKE    STAGE         VOLUME     VOL.CHANGE      PRECIP     EVAPORATION        RUNOFF
   1   117.0270     8.5168E+07    9.0400E+02    6.4185E+05    5.6992E+05    0.0000E+00
   2   111.9614     5.3508E+07    2.0080E+03    6.4185E+05    5.6992E+05    0.0000E+00

            GROUND WATER            SURFACE WATER        WATER
 LAKE    INFLOW     OUTFLOW      INFLOW     OUTFLOW       USE
   1  2.6087E+06  0.0000E+00  9.2282E+06  1.1908E+07  0.0000E+00
   2  2.8364E+06  0.0000E+00  1.3546E+07  1.6452E+07  0.0000E+00

      CONNECTED LAKE   TIME-STEP         STAGE-CHANGE          PERCENT
 LAKE    INFLUX      SURFACE AREA   TIME STEP  CUMULATIVE    DISCREPANCY
   1   0.0000E+00     6.2500E+06   1.4563E-04 -1.2973E+01       0.000
   2   0.0000E+00     6.2500E+06   3.2102E-04 -1.8039E+01       0.000
 --------------------------------------------------------------------------------



            CUMULATIVE HYDROLOGIC BUDGET SUMMARIES FOR SIMULATED LAKES
     (ALL FLUID FLUXES ARE SUMS OF VOLUMES ADDED TO THE LAKE SINCE INITIAL TIME)
     ---------------------------------------------------------------------------
 LAKE       PRECIP       EVAP       RUNOFF
   1     6.5472E+07  5.8134E+07  0.0000E+00
   2     6.5472E+07  5.8134E+07  0.0000E+00

            GROUND WATER            SURFACE WATER
 LAKE    INFLOW     OUTFLOW      INFLOW     OUTFLOW
   1  1.9124E+08  1.5644E+06  8.7519E+08  1.1533E+09
   2  2.1622E+08  1.4259E+06  1.2769E+09  1.6118E+09

         WATER    CONNECTED LAKE   CHANGE       PERCENT
 LAKE     USE         INFLUX       IN VOL.    DISCREPANCY
   1   0.0000E+00   0.0000E+00  -8.1080E+07      0.000
   2   0.0000E+00   0.0000E+00  -1.1274E+08      0.000
 --------------------------------------------------------------------------------

 
 SOLVING FOR HEAD 
     4 ITERATIONS FOR TIME STEP 143 IN STRESS PERIOD    1

 HEAD/DRAWDOWN PRINTOUT FLAG = 0     TOTAL BUDGET PRINTOUT FLAG = 0
 CELL-BY-CELL FLOW TERM FLAG = 1

 OUTPUT FLAGS FOR ALL LAYERS ARE THE SAME:
   HEAD    DRAWDOWN  HEAD  DRAWDOWN
 PRINTOUT  PRINTOUT  SAVE    SAVE
 ----------------------------------
     0         0       0       0



 STREAM LISTING     PERIOD      1   STEP      143

 LAYER ROW COL. STREAM  RCH.  FLOW INTO     FLOW TO   FLOW OUT OF   OVRLND.     DIRECT     STREAM       STREAM     STREAM     STREAM   STREAMBED  STREAMBED
                SEG.NO.  NO.  STRM. RCH.    AQUIFER    STRM. RCH.    RUNOFF     PRECIP       ET          HEAD       DEPTH      WIDTH   CONDCTNC.   GRADIENT

   1    2    5     1     1    6.9120E+05 -8.0016E+04   7.7122E+05  0.000E+00  0.000E+00  0.000E+00  1.25330E+02  1.382E+00  5.000E+00  5.000E+03 -3.201E+01
   1    3    5     1     2    7.7122E+05 -5.6323E+04   8.2754E+05  0.000E+00  0.000E+00  0.000E+00  1.24303E+02  1.458E+00  5.000E+00  5.000E+03 -2.253E+01
   1    4    5     1     3    8.2754E+05 -5.3276E+04   8.8082E+05  0.000E+00  0.000E+00  0.000E+00  1.23258E+02  1.517E+00  5.000E+00  5.000E+03 -2.131E+01
   1    4    6     1     4    8.8082E+05 -4.3542E+04   9.2436E+05  0.000E+00  0.000E+00  0.000E+00  1.22206E+02  1.568E+00  5.000E+00  5.000E+03 -1.742E+01
   1    4    7     1     5    9.2436E+05 -2.1203E+04   9.4556E+05  0.000E+00  0.000E+00  0.000E+00  1.21412E+02  1.602E+00  5.000E+00  2.500E+03 -1.696E+01
   1    4    8     1     6    9.4556E+05 -3.4820E+04   9.8038E+05  0.000E+00  0.000E+00  0.000E+00  1.20751E+02  1.630E+00  5.000E+00  3.750E+03 -1.857E+01
   1    5    8     1     7    9.8038E+05 -3.6729E+04   1.0171E+06  0.000E+00  0.000E+00  0.000E+00  1.19821E+02  1.666E+00  5.000E+00  5.000E+03 -1.469E+01
   1    6    8     1     8    1.0171E+06 -2.5291E+04   1.0424E+06  0.000E+00  0.000E+00  0.000E+00  1.18749E+02  1.697E+00  5.000E+00  5.000E+03 -1.012E+01
   1   12    9     2     1    1.3452E+06 -2.7118E+04   1.3723E+06  0.000E+00  0.000E+00  0.000E+00  1.16630E+02  2.190E+00  5.000E+00  5.000E+03 -1.085E+01
   1   13    9     2     2    1.3723E+06 -4.2675E+04   1.4150E+06  0.000E+00  0.000E+00  0.000E+00  1.15843E+02  2.224E+00  5.000E+00  5.000E+03 -1.707E+01
   1   14   10     2     3    1.4150E+06 -2.3039E+04   1.4380E+06  0.000E+00  0.000E+00  0.000E+00  1.15235E+02  2.255E+00  5.000E+00  2.795E+03 -1.649E+01
   1   14   10     2     4    1.4380E+06 -2.4259E+04   1.4623E+06  0.000E+00  0.000E+00  0.000E+00  1.14798E+02  2.278E+00  5.000E+00  2.795E+03 -1.736E+01
   1   15   10     2     5    1.4623E+06 -4.0749E+04   1.5030E+06  0.000E+00  0.000E+00  0.000E+00  1.14189E+02  2.308E+00  5.000E+00  5.000E+03 -1.630E+01
   1   16   10     2     6    1.5030E+06 -2.7242E+04   1.5303E+06  0.000E+00  0.000E+00  0.000E+00  1.13400E+02  2.340E+00  5.000E+00  5.000E+03 -1.090E+01
   1   22   10     3     1    1.8587E+06 -2.7751E+04   1.8864E+06  0.000E+00  0.000E+00  0.000E+00  1.11500E+02  2.544E+00  5.000E+00  5.000E+03 -1.110E+01
   1   23   10     3     2    1.8864E+06 -4.0002E+04   1.9265E+06  0.000E+00  0.000E+00  0.000E+00  1.10700E+02  2.572E+00  5.000E+00  3.750E+03 -2.133E+01
   1   23   11     3     3    1.9265E+06 -2.3714E+04   1.9502E+06  0.000E+00  0.000E+00  0.000E+00  1.10135E+02  2.598E+00  5.000E+00  2.500E+03 -1.897E+01
   1   23   12     3     4    1.9502E+06 -4.7058E+04   1.9972E+06  0.000E+00  0.000E+00  0.000E+00  1.09454E+02  2.626E+00  5.000E+00  5.000E+03 -1.882E+01
   1   23   13     3     5    1.9972E+06 -5.0704E+04   2.0479E+06  0.000E+00  0.000E+00  0.000E+00  1.08547E+02  2.665E+00  5.000E+00  5.000E+03 -2.028E+01
   1   23   14     3     6    2.0479E+06 -5.4440E+04   2.1024E+06  0.000E+00  0.000E+00  0.000E+00  1.07642E+02  2.706E+00  5.000E+00  5.000E+03 -2.178E+01
   1   23   15     3     7    2.1024E+06 -6.1811E+04   2.1642E+06  0.000E+00  0.000E+00  0.000E+00  1.06742E+02  2.751E+00  5.000E+00  5.000E+03 -2.472E+01
   1   23   16     3     8    2.1642E+06 -9.0014E+04   2.2542E+06  0.000E+00  0.000E+00  0.000E+00  1.05854E+02  2.810E+00  5.000E+00  5.000E+03 -3.601E+01





     0  LAKE CELLS ARE DRY.

 PERIOD     1     TIME STEP   143     TIME STEP LENGTH  8.8973E+00
 PERIOD TIME  9.1195E+02     TOTAL SIMULATION TIME  9.1195E+02


                 HYDROLOGIC BUDGET SUMMARIES FOR SIMULATED LAKES
     (ALL FLUID FLUXES ARE VOLUMES ADDED TO THE LAKE DURING PRESENT TIME STEP)
     -------------------------------------------------------------------------
 LAKE    STAGE         VOLUME     VOL.CHANGE      PRECIP     EVAPORATION        RUNOFF
   1   117.0271     8.5169E+07    8.4000E+02    6.4506E+05    5.7277E+05    0.0000E+00
   2   111.9617     5.3510E+07    1.8560E+03    6.4506E+05    5.7277E+05    0.0000E+00

            GROUND WATER            SURFACE WATER        WATER
 LAKE    INFLOW     OUTFLOW      INFLOW     OUTFLOW       USE
   1  2.6226E+06  0.0000E+00  9.2746E+06  1.1969E+07  0.0000E+00
   2  2.8517E+06  0.0000E+00  1.3615E+07  1.6537E+07  0.0000E+00

      CONNECTED LAKE   TIME-STEP         STAGE-CHANGE          PERCENT
 LAKE    INFLUX      SURFACE AREA   TIME STEP  CUMULATIVE    DISCREPANCY
   1   0.0000E+00     6.2500E+06   1.3399E-04 -1.2973E+01       0.000
   2   0.0000E+00     6.2500E+06   2.9713E-04 -1.8038E+01       0.000
 --------------------------------------------------------------------------------



            CUMULATIVE HYDROLOGIC BUDGET SUMMARIES FOR SIMULATED LAKES
     (ALL FLUID FLUXES ARE SUMS OF VOLUMES ADDED TO THE LAKE SINCE INITIAL TIME)
     ---------------------------------------------------------------------------
 LAKE       PRECIP       EVAP       RUNOFF
   1     6.6117E+07  5.8707E+07  0.0000E+00
   2     6.6117E+07  5.8707E+07  0.0000E+00

            GROUND WATER            SURFACE WATER
 LAKE    INFLOW     OUTFLOW      INFLOW     OUTFLOW
   1  1.9386E+08  1.5644E+06  8.8446E+08  1.1653E+09
   2  2.1907E+08  1.4259E+06  1.2905E+09  1.6283E+09

         WATER    CONNECTED LAKE   CHANGE       PERCENT
 LAKE     USE         INFLUX       IN VOL.    DISCREPANCY
   1   0.0000E+00   0.0000E+00  -8.1080E+07      0.000
   2   0.0000E+00   0.0000E+00  -1.1274E+08      0.000
 --------------------------------------------------------------------------------

 
 SOLVING FOR HEAD 
     4 ITERATIONS FOR TIME STEP 144 IN STRESS PERIOD    1

 HEAD/DRAWDOWN PRINTOUT FLAG = 0     TOTAL BUDGET PRINTOUT FLAG = 0
 CELL-BY-CELL FLOW TERM FLAG = 1

 OUTPUT FLAGS FOR ALL LAYERS ARE THE SAME:
   HEAD    DRAWDOWN  HEAD  DRAWDOWN
 PRINTOUT  PRINTOUT  SAVE    SAVE
 ----------------------------------
     0         0       0       0



 STREAM LISTING     PERIOD      1   STEP      144

 LAYER ROW COL. STREAM  RCH.  FLOW INTO     FLOW TO   FLOW OUT OF   OVRLND.     DIRECT     STREAM       STREAM     STREAM     STREAM   STREAMBED  STREAMBED
                SEG.NO.  NO.  STRM. RCH.    AQUIFER    STRM. RCH.    RUNOFF     PRECIP       ET          HEAD       DEPTH      WIDTH   CONDCTNC.   GRADIENT

   1    2    5     1     1    6.9120E+05 -8.0017E+04   7.7122E+05  0.000E+00  0.000E+00  0.000E+00  1.25330E+02  1.382E+00  5.000E+00  5.000E+03 -3.201E+01
   1    3    5     1     2    7.7122E+05 -5.6326E+04   8.2754E+05  0.000E+00  0.000E+00  0.000E+00  1.24303E+02  1.458E+00  5.000E+00  5.000E+03 -2.253E+01
   1    4    5     1     3    8.2754E+05 -5.3282E+04   8.8082E+05  0.000E+00  0.000E+00  0.000E+00  1.23258E+02  1.517E+00  5.000E+00  5.000E+03 -2.131E+01
   1    4    6     1     4    8.8082E+05 -4.3548E+04   9.2437E+05  0.000E+00  0.000E+00  0.000E+00  1.22206E+02  1.568E+00  5.000E+00  5.000E+03 -1.742E+01
   1    4    7     1     5    9.2437E+05 -2.1205E+04   9.4558E+05  0.000E+00  0.000E+00  0.000E+00  1.21412E+02  1.602E+00  5.000E+00  2.500E+03 -1.696E+01
   1    4    8     1     6    9.4558E+05 -3.4824E+04   9.8040E+05  0.000E+00  0.000E+00  0.000E+00  1.20751E+02  1.630E+00  5.000E+00  3.750E+03 -1.857E+01
   1    5    8     1     7    9.8040E+05 -3.6736E+04   1.0171E+06  0.000E+00  0.000E+00  0.000E+00  1.19821E+02  1.666E+00  5.000E+00  5.000E+03 -1.469E+01
   1    6    8     1     8    1.0171E+06 -2.5297E+04   1.0424E+06  0.000E+00  0.000E+00  0.000E+00  1.18749E+02  1.697E+00  5.000E+00  5.000E+03 -1.012E+01
   1   12    9     2     1    1.3453E+06 -2.7129E+04   1.3725E+06  0.000E+00  0.000E+00  0.000E+00  1.16630E+02  2.190E+00  5.000E+00  5.000E+03 -1.085E+01
   1   13    9     2     2    1.3725E+06 -4.2695E+04   1.4151E+06  0.000E+00  0.000E+00  0.000E+00  1.15843E+02  2.224E+00  5.000E+00  5.000E+03 -1.708E+01
   1   14   10     2     3    1.4151E+06 -2.3051E+04   1.4382E+06  0.000E+00  0.000E+00  0.000E+00  1.15235E+02  2.255E+00  5.000E+00  2.795E+03 -1.649E+01
   1   14   10     2     4    1.4382E+06 -2.4270E+04   1.4625E+06  0.000E+00  0.000E+00  0.000E+00  1.14798E+02  2.278E+00  5.000E+00  2.795E+03 -1.737E+01
   1   15   10     2     5    1.4625E+06 -4.0769E+04   1.5032E+06  0.000E+00  0.000E+00  0.000E+00  1.14189E+02  2.308E+00  5.000E+00  5.000E+03 -1.631E+01
   1   16   10     2     6    1.5032E+06 -2.7254E+04   1.5305E+06  0.000E+00  0.000E+00  0.000E+00  1.13400E+02  2.340E+00  5.000E+00  5.000E+03 -1.090E+01
   1   22   10     3     1    1.8590E+06 -2.7757E+04   1.8868E+06  0.000E+00  0.000E+00  0.000E+00  1.11500E+02  2.545E+00  5.000E+00  5.000E+03 -1.110E+01
   1   23   10     3     2    1.8868E+06 -4.0009E+04   1.9268E+06  0.000E+00  0.000E+00  0.000E+00  1.10700E+02  2.572E+00  5.000E+00  3.750E+03 -2.134E+01
   1   23   11     3     3    1.9268E+06 -2.3717E+04   1.9505E+06  0.000E+00  0.000E+00  0.000E+00  1.10135E+02  2.598E+00  5.000E+00  2.500E+03 -1.897E+01
   1   23   12     3     4    1.9505E+06 -4.7065E+04   1.9976E+06  0.000E+00  0.000E+00  0.000E+00  1.09454E+02  2.626E+00  5.000E+00  5.000E+03 -1.883E+01
   1   23   13     3     5    1.9976E+06 -5.0710E+04   2.0483E+06  0.000E+00  0.000E+00  0.000E+00  1.08547E+02  2.665E+00  5.000E+00  5.000E+03 -2.028E+01
   1   23   14     3     6    2.0483E+06 -5.4445E+04   2.1027E+06  0.000E+00  0.000E+00  0.000E+00  1.07642E+02  2.707E+00  5.000E+00  5.000E+03 -2.178E+01
   1   23   15     3     7    2.1027E+06 -6.1814E+04   2.1646E+06  0.000E+00  0.000E+00  0.000E+00  1.06742E+02  2.752E+00  5.000E+00  5.000E+03 -2.473E+01
   1   23   16     3     8    2.1646E+06 -9.0015E+04   2.2546E+06  0.000E+00  0.000E+00  0.000E+00  1.05854E+02  2.810E+00  5.000E+00  5.000E+03 -3.601E+01





     0  LAKE CELLS ARE DRY.

 PERIOD     1     TIME STEP   144     TIME STEP LENGTH  8.9418E+00
 PERIOD TIME  9.2089E+02     TOTAL SIMULATION TIME  9.2089E+02


                 HYDROLOGIC BUDGET SUMMARIES FOR SIMULATED LAKES
     (ALL FLUID FLUXES ARE VOLUMES ADDED TO THE LAKE DURING PRESENT TIME STEP)
     -------------------------------------------------------------------------
 LAKE    STAGE         VOLUME     VOL.CHANGE      PRECIP     EVAPORATION        RUNOFF
   1   117.0273     8.5170E+07    8.0000E+02    6.4828E+05    5.7563E+05    0.0000E+00
   2   111.9620     5.3512E+07    1.7640E+03    6.4828E+05    5.7563E+05    0.0000E+00

            GROUND WATER            SURFACE WATER        WATER
 LAKE    INFLOW     OUTFLOW      INFLOW     OUTFLOW       USE
   1  2.6365E+06  0.0000E+00  9.3213E+06  1.2030E+07  0.0000E+00
   2  2.8670E+06  0.0000E+00  1.3685E+07  1.6623E+07  0.0000E+00

      CONNECTED LAKE   TIME-STEP         STAGE-CHANGE          PERCENT
 LAKE    INFLUX      SURFACE AREA   TIME STEP  CUMULATIVE    DISCREPANCY
   1   0.0000E+00     6.2500E+06   1.2750E-04 -1.2973E+01       0.000
   2   0.0000E+00     6.2500E+06   2.8248E-04 -1.8038E+01       0.000
 --------------------------------------------------------------------------------



            CUMULATIVE HYDROLOGIC BUDGET SUMMARIES FOR SIMULATED LAKES
     (ALL FLUID FLUXES ARE SUMS OF VOLUMES ADDED TO THE LAKE SINCE INITIAL TIME)
     ---------------------------------------------------------------------------
 LAKE       PRECIP       EVAP       RUNOFF
   1     6.6765E+07  5.9283E+07  0.0000E+00
   2     6.6765E+07  5.9283E+07  0.0000E+00

            GROUND WATER            SURFACE WATER
 LAKE    INFLOW     OUTFLOW      INFLOW     OUTFLOW
   1  1.9650E+08  1.5644E+06  8.9379E+08  1.1773E+09
   2  2.2193E+08  1.4259E+06  1.3042E+09  1.6449E+09

         WATER    CONNECTED LAKE   CHANGE       PERCENT
 LAKE     USE         INFLUX       IN VOL.    DISCREPANCY
   1   0.0000E+00   0.0000E+00  -8.1079E+07      0.000
   2   0.0000E+00   0.0000E+00  -1.1274E+08      0.000
 --------------------------------------------------------------------------------

 
 SOLVING FOR HEAD 
     4 ITERATIONS FOR TIME STEP 145 IN STRESS PERIOD    1

 HEAD/DRAWDOWN PRINTOUT FLAG = 0     TOTAL BUDGET PRINTOUT FLAG = 0
 CELL-BY-CELL FLOW TERM FLAG = 1

 OUTPUT FLAGS FOR ALL LAYERS ARE THE SAME:
   HEAD    DRAWDOWN  HEAD  DRAWDOWN
 PRINTOUT  PRINTOUT  SAVE    SAVE
 ----------------------------------
     0         0       0       0



 STREAM LISTING     PERIOD      1   STEP      145

 LAYER ROW COL. STREAM  RCH.  FLOW INTO     FLOW TO   FLOW OUT OF   OVRLND.     DIRECT     STREAM       STREAM     STREAM     STREAM   STREAMBED  STREAMBED
                SEG.NO.  NO.  STRM. RCH.    AQUIFER    STRM. RCH.    RUNOFF     PRECIP       ET          HEAD       DEPTH      WIDTH   CONDCTNC.   GRADIENT

   1    2    5     1     1    6.9120E+05 -8.0018E+04   7.7122E+05  0.000E+00  0.000E+00  0.000E+00  1.25330E+02  1.382E+00  5.000E+00  5.000E+03 -3.201E+01
   1    3    5     1     2    7.7122E+05 -5.6328E+04   8.2755E+05  0.000E+00  0.000E+00  0.000E+00  1.24303E+02  1.458E+00  5.000E+00  5.000E+03 -2.253E+01
   1    4    5     1     3    8.2755E+05 -5.3287E+04   8.8083E+05  0.000E+00  0.000E+00  0.000E+00  1.23258E+02  1.517E+00  5.000E+00  5.000E+03 -2.131E+01
   1    4    6     1     4    8.8083E+05 -4.3553E+04   9.2439E+05  0.000E+00  0.000E+00  0.000E+00  1.22206E+02  1.568E+00  5.000E+00  5.000E+03 -1.742E+01
   1    4    7     1     5    9.2439E+05 -2.1207E+04   9.4559E+05  0.000E+00  0.000E+00  0.000E+00  1.21412E+02  1.602E+00  5.000E+00  2.500E+03 -1.697E+01
   1    4    8     1     6    9.4559E+05 -3.4827E+04   9.8042E+05  0.000E+00  0.000E+00  0.000E+00  1.20751E+02  1.630E+00  5.000E+00  3.750E+03 -1.857E+01
   1    5    8     1     7    9.8042E+05 -3.6742E+04   1.0172E+06  0.000E+00  0.000E+00  0.000E+00  1.19821E+02  1.666E+00  5.000E+00  5.000E+03 -1.470E+01
   1    6    8     1     8    1.0172E+06 -2.5302E+04   1.0425E+06  0.000E+00  0.000E+00  0.000E+00  1.18749E+02  1.697E+00  5.000E+00  5.000E+03 -1.012E+01
   1   12    9     2     1    1.3454E+06 -2.7139E+04   1.3726E+06  0.000E+00  0.000E+00  0.000E+00  1.16630E+02  2.191E+00  5.000E+00  5.000E+03 -1.086E+01
   1   13    9     2     2    1.3726E+06 -4.2715E+04   1.4153E+06  0.000E+00  0.000E+00  0.000E+00  1.15843E+02  2.224E+00  5.000E+00  5.000E+03 -1.709E+01
   1   14   10     2     3    1.4153E+06 -2.3061E+04   1.4384E+06  0.000E+00  0.000E+00  0.000E+00  1.15235E+02  2.256E+00  5.000E+00  2.795E+03 -1.650E+01
   1   14   10     2     4    1.4384E+06 -2.4281E+04   1.4626E+06  0.000E+00  0.000E+00  0.000E+00  1.14799E+02  2.278E+00  5.000E+00  2.795E+03 -1.737E+01
   1   15   10     2     5    1.4626E+06 -4.0787E+04   1.5034E+06  0.000E+00  0.000E+00  0.000E+00  1.14189E+02  2.308E+00  5.000E+00  5.000E+03 -1.631E+01
   1   16   10     2     6    1.5034E+06 -2.7266E+04   1.5307E+06  0.000E+00  0.000E+00  0.000E+00  1.13400E+02  2.340E+00  5.000E+00  5.000E+03 -1.091E+01
   1   22   10     3     1    1.8594E+06 -2.7763E+04   1.8871E+06  0.000E+00  0.000E+00  0.000E+00  1.11501E+02  2.545E+00  5.000E+00  5.000E+03 -1.111E+01
   1   23   10     3     2    1.8871E+06 -4.0016E+04   1.9271E+06  0.000E+00  0.000E+00  0.000E+00  1.10701E+02  2.573E+00  5.000E+00  3.750E+03 -2.134E+01
   1   23   11     3     3    1.9271E+06 -2.3721E+04   1.9509E+06  0.000E+00  0.000E+00  0.000E+00  1.10135E+02  2.598E+00  5.000E+00  2.500E+03 -1.898E+01
   1   23   12     3     4    1.9509E+06 -4.7071E+04   1.9979E+06  0.000E+00  0.000E+00  0.000E+00  1.09454E+02  2.627E+00  5.000E+00  5.000E+03 -1.883E+01
   1   23   13     3     5    1.9979E+06 -5.0717E+04   2.0487E+06  0.000E+00  0.000E+00  0.000E+00  1.08547E+02  2.665E+00  5.000E+00  5.000E+03 -2.029E+01
   1   23   14     3     6    2.0487E+06 -5.4450E+04   2.1031E+06  0.000E+00  0.000E+00  0.000E+00  1.07643E+02  2.707E+00  5.000E+00  5.000E+03 -2.178E+01
   1   23   15     3     7    2.1031E+06 -6.1817E+04   2.1649E+06  0.000E+00  0.000E+00  0.000E+00  1.06742E+02  2.752E+00  5.000E+00  5.000E+03 -2.473E+01
   1   23   16     3     8    2.1649E+06 -9.0016E+04   2.2549E+06  0.000E+00  0.000E+00  0.000E+00  1.05855E+02  2.810E+00  5.000E+00  5.000E+03 -3.601E+01





     0  LAKE CELLS ARE DRY.

 PERIOD     1     TIME STEP   145     TIME STEP LENGTH  8.9865E+00
 PERIOD TIME  9.2988E+02     TOTAL SIMULATION TIME  9.2988E+02


                 HYDROLOGIC BUDGET SUMMARIES FOR SIMULATED LAKES
     (ALL FLUID FLUXES ARE VOLUMES ADDED TO THE LAKE DURING PRESENT TIME STEP)
     -------------------------------------------------------------------------
 LAKE    STAGE         VOLUME     VOL.CHANGE      PRECIP     EVAPORATION        RUNOFF
   1   117.0274     8.5170E+07    7.4400E+02    6.5152E+05    5.7851E+05    0.0000E+00
   2   111.9623     5.3513E+07    1.6480E+03    6.5152E+05    5.7851E+05    0.0000E+00

            GROUND WATER            SURFACE WATER        WATER
 LAKE    INFLOW     OUTFLOW      INFLOW     OUTFLOW       USE
   1  2.6505E+06  0.0000E+00  9.3682E+06  1.2091E+07  0.0000E+00
   2  2.8823E+06  0.0000E+00  1.3756E+07  1.6709E+07  0.0000E+00

      CONNECTED LAKE   TIME-STEP         STAGE-CHANGE          PERCENT
 LAKE    INFLUX      SURFACE AREA   TIME STEP  CUMULATIVE    DISCREPANCY
   1   0.0000E+00     6.2500E+06   1.1889E-04 -1.2973E+01       0.000
   2   0.0000E+00     6.2500E+06   2.6362E-04 -1.8038E+01       0.000
 --------------------------------------------------------------------------------



            CUMULATIVE HYDROLOGIC BUDGET SUMMARIES FOR SIMULATED LAKES
     (ALL FLUID FLUXES ARE SUMS OF VOLUMES ADDED TO THE LAKE SINCE INITIAL TIME)
     ---------------------------------------------------------------------------
 LAKE       PRECIP       EVAP       RUNOFF
   1     6.7416E+07  5.9861E+07  0.0000E+00
   2     6.7416E+07  5.9861E+07  0.0000E+00

            GROUND WATER            SURFACE WATER
 LAKE    INFLOW     OUTFLOW      INFLOW     OUTFLOW
   1  1.9915E+08  1.5644E+06  9.0315E+08  1.1894E+09
   2  2.2482E+08  1.4259E+06  1.3180E+09  1.6617E+09

         WATER    CONNECTED LAKE   CHANGE       PERCENT
 LAKE     USE         INFLUX       IN VOL.    DISCREPANCY
   1   0.0000E+00   0.0000E+00  -8.1078E+07      0.000
   2   0.0000E+00   0.0000E+00  -1.1274E+08      0.000
 --------------------------------------------------------------------------------

 
 SOLVING FOR HEAD 
     4 ITERATIONS FOR TIME STEP 146 IN STRESS PERIOD    1

 HEAD/DRAWDOWN PRINTOUT FLAG = 0     TOTAL BUDGET PRINTOUT FLAG = 0
 CELL-BY-CELL FLOW TERM FLAG = 1

 OUTPUT FLAGS FOR ALL LAYERS ARE THE SAME:
   HEAD    DRAWDOWN  HEAD  DRAWDOWN
 PRINTOUT  PRINTOUT  SAVE    SAVE
 ----------------------------------
     0         0       0       0



 STREAM LISTING     PERIOD      1   STEP      146

 LAYER ROW COL. STREAM  RCH.  FLOW INTO     FLOW TO   FLOW OUT OF   OVRLND.     DIRECT     STREAM       STREAM     STREAM     STREAM   STREAMBED  STREAMBED
                SEG.NO.  NO.  STRM. RCH.    AQUIFER    STRM. RCH.    RUNOFF     PRECIP       ET          HEAD       DEPTH      WIDTH   CONDCTNC.   GRADIENT

   1    2    5     1     1    6.9120E+05 -8.0019E+04   7.7122E+05  0.000E+00  0.000E+00  0.000E+00  1.25330E+02  1.382E+00  5.000E+00  5.000E+03 -3.201E+01
   1    3    5     1     2    7.7122E+05 -5.6331E+04   8.2755E+05  0.000E+00  0.000E+00  0.000E+00  1.24303E+02  1.458E+00  5.000E+00  5.000E+03 -2.253E+01
   1    4    5     1     3    8.2755E+05 -5.3293E+04   8.8084E+05  0.000E+00  0.000E+00  0.000E+00  1.23258E+02  1.517E+00  5.000E+00  5.000E+03 -2.132E+01
   1    4    6     1     4    8.8084E+05 -4.3557E+04   9.2440E+05  0.000E+00  0.000E+00  0.000E+00  1.22206E+02  1.568E+00  5.000E+00  5.000E+03 -1.742E+01
   1    4    7     1     5    9.2440E+05 -2.1209E+04   9.4561E+05  0.000E+00  0.000E+00  0.000E+00  1.21412E+02  1.602E+00  5.000E+00  2.500E+03 -1.697E+01
   1    4    8     1     6    9.4561E+05 -3.4831E+04   9.8044E+05  0.000E+00  0.000E+00  0.000E+00  1.20751E+02  1.630E+00  5.000E+00  3.750E+03 -1.858E+01
   1    5    8     1     7    9.8044E+05 -3.6747E+04   1.0172E+06  0.000E+00  0.000E+00  0.000E+00  1.19821E+02  1.666E+00  5.000E+00  5.000E+03 -1.470E+01
   1    6    8     1     8    1.0172E+06 -2.5307E+04   1.0425E+06  0.000E+00  0.000E+00  0.000E+00  1.18749E+02  1.697E+00  5.000E+00  5.000E+03 -1.012E+01
   1   12    9     2     1    1.3456E+06 -2.7149E+04   1.3727E+06  0.000E+00  0.000E+00  0.000E+00  1.16630E+02  2.191E+00  5.000E+00  5.000E+03 -1.086E+01
   1   13    9     2     2    1.3727E+06 -4.2733E+04   1.4154E+06  0.000E+00  0.000E+00  0.000E+00  1.15843E+02  2.224E+00  5.000E+00  5.000E+03 -1.709E+01
   1   14   10     2     3    1.4154E+06 -2.3071E+04   1.4385E+06  0.000E+00  0.000E+00  0.000E+00  1.15235E+02  2.256E+00  5.000E+00  2.795E+03 -1.651E+01
   1   14   10     2     4    1.4385E+06 -2.4291E+04   1.4628E+06  0.000E+00  0.000E+00  0.000E+00  1.14799E+02  2.278E+00  5.000E+00  2.795E+03 -1.738E+01
   1   15   10     2     5    1.4628E+06 -4.0805E+04   1.5036E+06  0.000E+00  0.000E+00  0.000E+00  1.14190E+02  2.309E+00  5.000E+00  5.000E+03 -1.632E+01
   1   16   10     2     6    1.5036E+06 -2.7277E+04   1.5309E+06  0.000E+00  0.000E+00  0.000E+00  1.13401E+02  2.340E+00  5.000E+00  5.000E+03 -1.091E+01
   1   22   10     3     1    1.8597E+06 -2.7769E+04   1.8874E+06  0.000E+00  0.000E+00  0.000E+00  1.11501E+02  2.545E+00  5.000E+00  5.000E+03 -1.111E+01
   1   23   10     3     2    1.8874E+06 -4.0021E+04   1.9275E+06  0.000E+00  0.000E+00  0.000E+00  1.10701E+02  2.573E+00  5.000E+00  3.750E+03 -2.134E+01
   1   23   11     3     3    1.9275E+06 -2.3724E+04   1.9512E+06  0.000E+00  0.000E+00  0.000E+00  1.10135E+02  2.598E+00  5.000E+00  2.500E+03 -1.898E+01
   1   23   12     3     4    1.9512E+06 -4.7077E+04   1.9983E+06  0.000E+00  0.000E+00  0.000E+00  1.09454E+02  2.627E+00  5.000E+00  5.000E+03 -1.883E+01
   1   23   13     3     5    1.9983E+06 -5.0722E+04   2.0490E+06  0.000E+00  0.000E+00  0.000E+00  1.08547E+02  2.666E+00  5.000E+00  5.000E+03 -2.029E+01
   1   23   14     3     6    2.0490E+06 -5.4455E+04   2.1034E+06  0.000E+00  0.000E+00  0.000E+00  1.07643E+02  2.707E+00  5.000E+00  5.000E+03 -2.178E+01
   1   23   15     3     7    2.1034E+06 -6.1820E+04   2.1653E+06  0.000E+00  0.000E+00  0.000E+00  1.06742E+02  2.752E+00  5.000E+00  5.000E+03 -2.473E+01
   1   23   16     3     8    2.1653E+06 -9.0017E+04   2.2553E+06  0.000E+00  0.000E+00  0.000E+00  1.05855E+02  2.811E+00  5.000E+00  5.000E+03 -3.601E+01





     0  LAKE CELLS ARE DRY.

 PERIOD     1     TIME STEP   146     TIME STEP LENGTH  9.0315E+00
 PERIOD TIME  9.3891E+02     TOTAL SIMULATION TIME  9.3891E+02


                 HYDROLOGIC BUDGET SUMMARIES FOR SIMULATED LAKES
     (ALL FLUID FLUXES ARE VOLUMES ADDED TO THE LAKE DURING PRESENT TIME STEP)
     -------------------------------------------------------------------------
 LAKE    STAGE         VOLUME     VOL.CHANGE      PRECIP     EVAPORATION        RUNOFF
   1   117.0275     8.5171E+07    6.8800E+02    6.5478E+05    5.8140E+05    0.0000E+00
   2   111.9625     5.3515E+07    1.5560E+03    6.5478E+05    5.8140E+05    0.0000E+00

            GROUND WATER            SURFACE WATER        WATER
 LAKE    INFLOW     OUTFLOW      INFLOW     OUTFLOW       USE
   1  2.6644E+06  0.0000E+00  9.4153E+06  1.2152E+07  0.0000E+00
   2  2.8976E+06  0.0000E+00  1.3826E+07  1.6796E+07  0.0000E+00

      CONNECTED LAKE   TIME-STEP         STAGE-CHANGE          PERCENT
 LAKE    INFLUX      SURFACE AREA   TIME STEP  CUMULATIVE    DISCREPANCY
   1   0.0000E+00     6.2500E+06   1.1099E-04 -1.2972E+01       0.000
   2   0.0000E+00     6.2500E+06   2.4896E-04 -1.8037E+01       0.000
 --------------------------------------------------------------------------------



            CUMULATIVE HYDROLOGIC BUDGET SUMMARIES FOR SIMULATED LAKES
     (ALL FLUID FLUXES ARE SUMS OF VOLUMES ADDED TO THE LAKE SINCE INITIAL TIME)
     ---------------------------------------------------------------------------
 LAKE       PRECIP       EVAP       RUNOFF
   1     6.8071E+07  6.0442E+07  0.0000E+00
   2     6.8071E+07  6.0442E+07  0.0000E+00

            GROUND WATER            SURFACE WATER
 LAKE    INFLOW     OUTFLOW      INFLOW     OUTFLOW
   1  2.0181E+08  1.5644E+06  9.1257E+08  1.2015E+09
   2  2.2771E+08  1.4259E+06  1.3318E+09  1.6785E+09

         WATER    CONNECTED LAKE   CHANGE       PERCENT
 LAKE     USE         INFLUX       IN VOL.    DISCREPANCY
   1   0.0000E+00   0.0000E+00  -8.1077E+07      0.000
   2   0.0000E+00   0.0000E+00  -1.1273E+08      0.000
 --------------------------------------------------------------------------------

 
 SOLVING FOR HEAD 
     4 ITERATIONS FOR TIME STEP 147 IN STRESS PERIOD    1

 HEAD/DRAWDOWN PRINTOUT FLAG = 0     TOTAL BUDGET PRINTOUT FLAG = 0
 CELL-BY-CELL FLOW TERM FLAG = 1

 OUTPUT FLAGS FOR ALL LAYERS ARE THE SAME:
   HEAD    DRAWDOWN  HEAD  DRAWDOWN
 PRINTOUT  PRINTOUT  SAVE    SAVE
 ----------------------------------
     0         0       0       0



 STREAM LISTING     PERIOD      1   STEP      147

 LAYER ROW COL. STREAM  RCH.  FLOW INTO     FLOW TO   FLOW OUT OF   OVRLND.     DIRECT     STREAM       STREAM     STREAM     STREAM   STREAMBED  STREAMBED
                SEG.NO.  NO.  STRM. RCH.    AQUIFER    STRM. RCH.    RUNOFF     PRECIP       ET          HEAD       DEPTH      WIDTH   CONDCTNC.   GRADIENT

   1    2    5     1     1    6.9120E+05 -8.0020E+04   7.7122E+05  0.000E+00  0.000E+00  0.000E+00  1.25330E+02  1.382E+00  5.000E+00  5.000E+03 -3.201E+01
   1    3    5     1     2    7.7122E+05 -5.6333E+04   8.2755E+05  0.000E+00  0.000E+00  0.000E+00  1.24303E+02  1.458E+00  5.000E+00  5.000E+03 -2.253E+01
   1    4    5     1     3    8.2755E+05 -5.3297E+04   8.8085E+05  0.000E+00  0.000E+00  0.000E+00  1.23258E+02  1.517E+00  5.000E+00  5.000E+03 -2.132E+01
   1    4    6     1     4    8.8085E+05 -4.3562E+04   9.2441E+05  0.000E+00  0.000E+00  0.000E+00  1.22206E+02  1.568E+00  5.000E+00  5.000E+03 -1.742E+01
   1    4    7     1     5    9.2441E+05 -2.1211E+04   9.4562E+05  0.000E+00  0.000E+00  0.000E+00  1.21412E+02  1.602E+00  5.000E+00  2.500E+03 -1.697E+01
   1    4    8     1     6    9.4562E+05 -3.4834E+04   9.8046E+05  0.000E+00  0.000E+00  0.000E+00  1.20751E+02  1.630E+00  5.000E+00  3.750E+03 -1.858E+01
   1    5    8     1     7    9.8046E+05 -3.6753E+04   1.0172E+06  0.000E+00  0.000E+00  0.000E+00  1.19821E+02  1.666E+00  5.000E+00  5.000E+03 -1.470E+01
   1    6    8     1     8    1.0172E+06 -2.5311E+04   1.0425E+06  0.000E+00  0.000E+00  0.000E+00  1.18749E+02  1.697E+00  5.000E+00  5.000E+03 -1.012E+01
   1   12    9     2     1    1.3457E+06 -2.7158E+04   1.3728E+06  0.000E+00  0.000E+00  0.000E+00  1.16631E+02  2.191E+00  5.000E+00  5.000E+03 -1.086E+01
   1   13    9     2     2    1.3728E+06 -4.2750E+04   1.4156E+06  0.000E+00  0.000E+00  0.000E+00  1.15844E+02  2.224E+00  5.000E+00  5.000E+03 -1.710E+01
   1   14   10     2     3    1.4156E+06 -2.3080E+04   1.4387E+06  0.000E+00  0.000E+00  0.000E+00  1.15235E+02  2.256E+00  5.000E+00  2.795E+03 -1.652E+01
   1   14   10     2     4    1.4387E+06 -2.4300E+04   1.4630E+06  0.000E+00  0.000E+00  0.000E+00  1.14799E+02  2.278E+00  5.000E+00  2.795E+03 -1.739E+01
   1   15   10     2     5    1.4630E+06 -4.0821E+04   1.5038E+06  0.000E+00  0.000E+00  0.000E+00  1.14190E+02  2.309E+00  5.000E+00  5.000E+03 -1.633E+01
   1   16   10     2     6    1.5038E+06 -2.7288E+04   1.5311E+06  0.000E+00  0.000E+00  0.000E+00  1.13401E+02  2.340E+00  5.000E+00  5.000E+03 -1.092E+01
   1   22   10     3     1    1.8600E+06 -2.7774E+04   1.8877E+06  0.000E+00  0.000E+00  0.000E+00  1.11501E+02  2.545E+00  5.000E+00  5.000E+03 -1.111E+01
   1   23   10     3     2    1.8877E+06 -4.0027E+04   1.9278E+06  0.000E+00  0.000E+00  0.000E+00  1.10701E+02  2.573E+00  5.000E+00  3.750E+03 -2.135E+01
   1   23   11     3     3    1.9278E+06 -2.3727E+04   1.9515E+06  0.000E+00  0.000E+00  0.000E+00  1.10136E+02  2.599E+00  5.000E+00  2.500E+03 -1.898E+01
   1   23   12     3     4    1.9515E+06 -4.7083E+04   1.9986E+06  0.000E+00  0.000E+00  0.000E+00  1.09455E+02  2.627E+00  5.000E+00  5.000E+03 -1.883E+01
   1   23   13     3     5    1.9986E+06 -5.0728E+04   2.0493E+06  0.000E+00  0.000E+00  0.000E+00  1.08548E+02  2.666E+00  5.000E+00  5.000E+03 -2.029E+01
   1   23   14     3     6    2.0493E+06 -5.4459E+04   2.1038E+06  0.000E+00  0.000E+00  0.000E+00  1.07643E+02  2.707E+00  5.000E+00  5.000E+03 -2.178E+01
   1   23   15     3     7    2.1038E+06 -6.1823E+04   2.1656E+06  0.000E+00  0.000E+00  0.000E+00  1.06743E+02  2.753E+00  5.000E+00  5.000E+03 -2.473E+01
   1   23   16     3     8    2.1656E+06 -9.0017E+04   2.2556E+06  0.000E+00  0.000E+00  0.000E+00  1.05855E+02  2.811E+00  5.000E+00  5.000E+03 -3.601E+01





     0  LAKE CELLS ARE DRY.

 PERIOD     1     TIME STEP   147     TIME STEP LENGTH  9.0766E+00
 PERIOD TIME  9.4799E+02     TOTAL SIMULATION TIME  9.4799E+02


                 HYDROLOGIC BUDGET SUMMARIES FOR SIMULATED LAKES
     (ALL FLUID FLUXES ARE VOLUMES ADDED TO THE LAKE DURING PRESENT TIME STEP)
     -------------------------------------------------------------------------
 LAKE    STAGE         VOLUME     VOL.CHANGE      PRECIP     EVAPORATION        RUNOFF
   1   117.0276     8.5172E+07    6.5600E+02    6.5806E+05    5.8431E+05    0.0000E+00
   2   111.9628     5.3516E+07    1.4600E+03    6.5806E+05    5.8431E+05    0.0000E+00

            GROUND WATER            SURFACE WATER        WATER
 LAKE    INFLOW     OUTFLOW      INFLOW     OUTFLOW       USE
   1  2.6784E+06  0.0000E+00  9.4626E+06  1.2214E+07  0.0000E+00
   2  2.9130E+06  0.0000E+00  1.3897E+07  1.6882E+07  0.0000E+00

      CONNECTED LAKE   TIME-STEP         STAGE-CHANGE          PERCENT
 LAKE    INFLUX      SURFACE AREA   TIME STEP  CUMULATIVE    DISCREPANCY
   1   0.0000E+00     6.2500E+06   1.0419E-04 -1.2972E+01       0.000
   2   0.0000E+00     6.2500E+06   2.3354E-04 -1.8037E+01       0.000
 --------------------------------------------------------------------------------



            CUMULATIVE HYDROLOGIC BUDGET SUMMARIES FOR SIMULATED LAKES
     (ALL FLUID FLUXES ARE SUMS OF VOLUMES ADDED TO THE LAKE SINCE INITIAL TIME)
     ---------------------------------------------------------------------------
 LAKE       PRECIP       EVAP       RUNOFF
   1     6.8729E+07  6.1027E+07  0.0000E+00
   2     6.8729E+07  6.1027E+07  0.0000E+00

            GROUND WATER            SURFACE WATER
 LAKE    INFLOW     OUTFLOW      INFLOW     OUTFLOW
   1  2.0449E+08  1.5644E+06  9.2203E+08  1.2137E+09
   2  2.3063E+08  1.4259E+06  1.3457E+09  1.6953E+09

         WATER    CONNECTED LAKE   CHANGE       PERCENT
 LAKE     USE         INFLUX       IN VOL.    DISCREPANCY
   1   0.0000E+00   0.0000E+00  -8.1077E+07      0.000
   2   0.0000E+00   0.0000E+00  -1.1273E+08      0.000
 --------------------------------------------------------------------------------

 
 SOLVING FOR HEAD 
     4 ITERATIONS FOR TIME STEP 148 IN STRESS PERIOD    1

 HEAD/DRAWDOWN PRINTOUT FLAG = 0     TOTAL BUDGET PRINTOUT FLAG = 0
 CELL-BY-CELL FLOW TERM FLAG = 1

 OUTPUT FLAGS FOR ALL LAYERS ARE THE SAME:
   HEAD    DRAWDOWN  HEAD  DRAWDOWN
 PRINTOUT  PRINTOUT  SAVE    SAVE
 ----------------------------------
     0         0       0       0



 STREAM LISTING     PERIOD      1   STEP      148

 LAYER ROW COL. STREAM  RCH.  FLOW INTO     FLOW TO   FLOW OUT OF   OVRLND.     DIRECT     STREAM       STREAM     STREAM     STREAM   STREAMBED  STREAMBED
                SEG.NO.  NO.  STRM. RCH.    AQUIFER    STRM. RCH.    RUNOFF     PRECIP       ET          HEAD       DEPTH      WIDTH   CONDCTNC.   GRADIENT

   1    2    5     1     1    6.9120E+05 -8.0020E+04   7.7122E+05  0.000E+00  0.000E+00  0.000E+00  1.25330E+02  1.382E+00  5.000E+00  5.000E+03 -3.201E+01
   1    3    5     1     2    7.7122E+05 -5.6335E+04   8.2756E+05  0.000E+00  0.000E+00  0.000E+00  1.24303E+02  1.458E+00  5.000E+00  5.000E+03 -2.253E+01
   1    4    5     1     3    8.2756E+05 -5.3302E+04   8.8086E+05  0.000E+00  0.000E+00  0.000E+00  1.23258E+02  1.517E+00  5.000E+00  5.000E+03 -2.132E+01
   1    4    6     1     4    8.8086E+05 -4.3566E+04   9.2442E+05  0.000E+00  0.000E+00  0.000E+00  1.22206E+02  1.568E+00  5.000E+00  5.000E+03 -1.743E+01
   1    4    7     1     5    9.2442E+05 -2.1213E+04   9.4564E+05  0.000E+00  0.000E+00  0.000E+00  1.21412E+02  1.602E+00  5.000E+00  2.500E+03 -1.697E+01
   1    4    8     1     6    9.4564E+05 -3.4836E+04   9.8047E+05  0.000E+00  0.000E+00  0.000E+00  1.20751E+02  1.630E+00  5.000E+00  3.750E+03 -1.858E+01
   1    5    8     1     7    9.8047E+05 -3.6758E+04   1.0172E+06  0.000E+00  0.000E+00  0.000E+00  1.19821E+02  1.666E+00  5.000E+00  5.000E+03 -1.470E+01
   1    6    8     1     8    1.0172E+06 -2.5315E+04   1.0425E+06  0.000E+00  0.000E+00  0.000E+00  1.18749E+02  1.697E+00  5.000E+00  5.000E+03 -1.013E+01
   1   12    9     2     1    1.3458E+06 -2.7167E+04   1.3729E+06  0.000E+00  0.000E+00  0.000E+00  1.16631E+02  2.191E+00  5.000E+00  5.000E+03 -1.087E+01
   1   13    9     2     2    1.3729E+06 -4.2766E+04   1.4157E+06  0.000E+00  0.000E+00  0.000E+00  1.15844E+02  2.225E+00  5.000E+00  5.000E+03 -1.711E+01
   1   14   10     2     3    1.4157E+06 -2.3089E+04   1.4388E+06  0.000E+00  0.000E+00  0.000E+00  1.15235E+02  2.256E+00  5.000E+00  2.795E+03 -1.652E+01
   1   14   10     2     4    1.4388E+06 -2.4309E+04   1.4631E+06  0.000E+00  0.000E+00  0.000E+00  1.14799E+02  2.278E+00  5.000E+00  2.795E+03 -1.739E+01
   1   15   10     2     5    1.4631E+06 -4.0837E+04   1.5039E+06  0.000E+00  0.000E+00  0.000E+00  1.14190E+02  2.309E+00  5.000E+00  5.000E+03 -1.633E+01
   1   16   10     2     6    1.5039E+06 -2.7297E+04   1.5312E+06  0.000E+00  0.000E+00  0.000E+00  1.13401E+02  2.341E+00  5.000E+00  5.000E+03 -1.092E+01
   1   22   10     3     1    1.8602E+06 -2.7778E+04   1.8880E+06  0.000E+00  0.000E+00  0.000E+00  1.11501E+02  2.546E+00  5.000E+00  5.000E+03 -1.111E+01
   1   23   10     3     2    1.8880E+06 -4.0032E+04   1.9280E+06  0.000E+00  0.000E+00  0.000E+00  1.10701E+02  2.573E+00  5.000E+00  3.750E+03 -2.135E+01
   1   23   11     3     3    1.9280E+06 -2.3730E+04   1.9518E+06  0.000E+00  0.000E+00  0.000E+00  1.10136E+02  2.599E+00  5.000E+00  2.500E+03 -1.898E+01
   1   23   12     3     4    1.9518E+06 -4.7088E+04   1.9989E+06  0.000E+00  0.000E+00  0.000E+00  1.09455E+02  2.627E+00  5.000E+00  5.000E+03 -1.884E+01
   1   23   13     3     5    1.9989E+06 -5.0733E+04   2.0496E+06  0.000E+00  0.000E+00  0.000E+00  1.08548E+02  2.666E+00  5.000E+00  5.000E+03 -2.029E+01
   1   23   14     3     6    2.0496E+06 -5.4463E+04   2.1041E+06  0.000E+00  0.000E+00  0.000E+00  1.07643E+02  2.708E+00  5.000E+00  5.000E+03 -2.179E+01
   1   23   15     3     7    2.1041E+06 -6.1826E+04   2.1659E+06  0.000E+00  0.000E+00  0.000E+00  1.06743E+02  2.753E+00  5.000E+00  5.000E+03 -2.473E+01
   1   23   16     3     8    2.1659E+06 -9.0018E+04   2.2559E+06  0.000E+00  0.000E+00  0.000E+00  1.05855E+02  2.811E+00  5.000E+00  5.000E+03 -3.601E+01





     0  LAKE CELLS ARE DRY.

 PERIOD     1     TIME STEP   148     TIME STEP LENGTH  9.1220E+00
 PERIOD TIME  9.5711E+02     TOTAL SIMULATION TIME  9.5711E+02


                 HYDROLOGIC BUDGET SUMMARIES FOR SIMULATED LAKES
     (ALL FLUID FLUXES ARE VOLUMES ADDED TO THE LAKE DURING PRESENT TIME STEP)
     -------------------------------------------------------------------------
 LAKE    STAGE         VOLUME     VOL.CHANGE      PRECIP     EVAPORATION        RUNOFF
   1   117.0277     8.5172E+07    6.2400E+02    6.6135E+05    5.8723E+05    0.0000E+00
   2   111.9630     5.3518E+07    1.3760E+03    6.6135E+05    5.8723E+05    0.0000E+00

            GROUND WATER            SURFACE WATER        WATER
 LAKE    INFLOW     OUTFLOW      INFLOW     OUTFLOW       USE
   1  2.6925E+06  0.0000E+00  9.5101E+06  1.2276E+07  0.0000E+00
   2  2.9284E+06  0.0000E+00  1.3968E+07  1.6969E+07  0.0000E+00

      CONNECTED LAKE   TIME-STEP         STAGE-CHANGE          PERCENT
 LAKE    INFLUX      SURFACE AREA   TIME STEP  CUMULATIVE    DISCREPANCY
   1   0.0000E+00     6.2500E+06   1.0047E-04 -1.2972E+01       0.000
   2   0.0000E+00     6.2500E+06   2.2039E-04 -1.8037E+01       0.000
 --------------------------------------------------------------------------------



            CUMULATIVE HYDROLOGIC BUDGET SUMMARIES FOR SIMULATED LAKES
     (ALL FLUID FLUXES ARE SUMS OF VOLUMES ADDED TO THE LAKE SINCE INITIAL TIME)
     ---------------------------------------------------------------------------
 LAKE       PRECIP       EVAP       RUNOFF
   1     6.9391E+07  6.1614E+07  0.0000E+00
   2     6.9391E+07  6.1614E+07  0.0000E+00

            GROUND WATER            SURFACE WATER
 LAKE    INFLOW     OUTFLOW      INFLOW     OUTFLOW
   1  2.0719E+08  1.5644E+06  9.3154E+08  1.2260E+09
   2  2.3356E+08  1.4259E+06  1.3597E+09  1.7123E+09

         WATER    CONNECTED LAKE   CHANGE       PERCENT
 LAKE     USE         INFLUX       IN VOL.    DISCREPANCY
   1   0.0000E+00   0.0000E+00  -8.1076E+07      0.000
   2   0.0000E+00   0.0000E+00  -1.1273E+08      0.000
 --------------------------------------------------------------------------------

 
 SOLVING FOR HEAD 
     4 ITERATIONS FOR TIME STEP 149 IN STRESS PERIOD    1

 HEAD/DRAWDOWN PRINTOUT FLAG = 0     TOTAL BUDGET PRINTOUT FLAG = 0
 CELL-BY-CELL FLOW TERM FLAG = 1

 OUTPUT FLAGS FOR ALL LAYERS ARE THE SAME:
   HEAD    DRAWDOWN  HEAD  DRAWDOWN
 PRINTOUT  PRINTOUT  SAVE    SAVE
 ----------------------------------
     0         0       0       0



 STREAM LISTING     PERIOD      1   STEP      149

 LAYER ROW COL. STREAM  RCH.  FLOW INTO     FLOW TO   FLOW OUT OF   OVRLND.     DIRECT     STREAM       STREAM     STREAM     STREAM   STREAMBED  STREAMBED
                SEG.NO.  NO.  STRM. RCH.    AQUIFER    STRM. RCH.    RUNOFF     PRECIP       ET          HEAD       DEPTH      WIDTH   CONDCTNC.   GRADIENT

   1    2    5     1     1    6.9120E+05 -8.0021E+04   7.7122E+05  0.000E+00  0.000E+00  0.000E+00  1.25330E+02  1.382E+00  5.000E+00  5.000E+03 -3.201E+01
   1    3    5     1     2    7.7122E+05 -5.6337E+04   8.2756E+05  0.000E+00  0.000E+00  0.000E+00  1.24303E+02  1.458E+00  5.000E+00  5.000E+03 -2.253E+01
   1    4    5     1     3    8.2756E+05 -5.3306E+04   8.8086E+05  0.000E+00  0.000E+00  0.000E+00  1.23258E+02  1.517E+00  5.000E+00  5.000E+03 -2.132E+01
   1    4    6     1     4    8.8086E+05 -4.3570E+04   9.2443E+05  0.000E+00  0.000E+00  0.000E+00  1.22206E+02  1.568E+00  5.000E+00  5.000E+03 -1.743E+01
   1    4    7     1     5    9.2443E+05 -2.1215E+04   9.4565E+05  0.000E+00  0.000E+00  0.000E+00  1.21412E+02  1.602E+00  5.000E+00  2.500E+03 -1.697E+01
   1    4    8     1     6    9.4565E+05 -3.4839E+04   9.8049E+05  0.000E+00  0.000E+00  0.000E+00  1.20751E+02  1.630E+00  5.000E+00  3.750E+03 -1.858E+01
   1    5    8     1     7    9.8049E+05 -3.6762E+04   1.0172E+06  0.000E+00  0.000E+00  0.000E+00  1.19822E+02  1.666E+00  5.000E+00  5.000E+03 -1.470E+01
   1    6    8     1     8    1.0172E+06 -2.5319E+04   1.0426E+06  0.000E+00  0.000E+00  0.000E+00  1.18749E+02  1.697E+00  5.000E+00  5.000E+03 -1.013E+01
   1   12    9     2     1    1.3459E+06 -2.7175E+04   1.3730E+06  0.000E+00  0.000E+00  0.000E+00  1.16631E+02  2.191E+00  5.000E+00  5.000E+03 -1.087E+01
   1   13    9     2     2    1.3730E+06 -4.2781E+04   1.4158E+06  0.000E+00  0.000E+00  0.000E+00  1.15844E+02  2.225E+00  5.000E+00  5.000E+03 -1.711E+01
   1   14   10     2     3    1.4158E+06 -2.3098E+04   1.4389E+06  0.000E+00  0.000E+00  0.000E+00  1.15235E+02  2.256E+00  5.000E+00  2.795E+03 -1.653E+01
   1   14   10     2     4    1.4389E+06 -2.4317E+04   1.4632E+06  0.000E+00  0.000E+00  0.000E+00  1.14799E+02  2.278E+00  5.000E+00  2.795E+03 -1.740E+01
   1   15   10     2     5    1.4632E+06 -4.0851E+04   1.5041E+06  0.000E+00  0.000E+00  0.000E+00  1.14190E+02  2.309E+00  5.000E+00  5.000E+03 -1.634E+01
   1   16   10     2     6    1.5041E+06 -2.7307E+04   1.5314E+06  0.000E+00  0.000E+00  0.000E+00  1.13401E+02  2.341E+00  5.000E+00  5.000E+03 -1.092E+01
   1   22   10     3     1    1.8605E+06 -2.7783E+04   1.8883E+06  0.000E+00  0.000E+00  0.000E+00  1.11502E+02  2.546E+00  5.000E+00  5.000E+03 -1.111E+01
   1   23   10     3     2    1.8883E+06 -4.0037E+04   1.9283E+06  0.000E+00  0.000E+00  0.000E+00  1.10702E+02  2.573E+00  5.000E+00  3.750E+03 -2.135E+01
   1   23   11     3     3    1.9283E+06 -2.3732E+04   1.9520E+06  0.000E+00  0.000E+00  0.000E+00  1.10136E+02  2.599E+00  5.000E+00  2.500E+03 -1.899E+01
   1   23   12     3     4    1.9520E+06 -4.7093E+04   1.9991E+06  0.000E+00  0.000E+00  0.000E+00  1.09455E+02  2.628E+00  5.000E+00  5.000E+03 -1.884E+01
   1   23   13     3     5    1.9991E+06 -5.0737E+04   2.0499E+06  0.000E+00  0.000E+00  0.000E+00  1.08548E+02  2.666E+00  5.000E+00  5.000E+03 -2.029E+01
   1   23   14     3     6    2.0499E+06 -5.4467E+04   2.1043E+06  0.000E+00  0.000E+00  0.000E+00  1.07644E+02  2.708E+00  5.000E+00  5.000E+03 -2.179E+01
   1   23   15     3     7    2.1043E+06 -6.1828E+04   2.1662E+06  0.000E+00  0.000E+00  0.000E+00  1.06743E+02  2.753E+00  5.000E+00  5.000E+03 -2.473E+01
   1   23   16     3     8    2.1662E+06 -9.0019E+04   2.2562E+06  0.000E+00  0.000E+00  0.000E+00  1.05856E+02  2.811E+00  5.000E+00  5.000E+03 -3.601E+01





     0  LAKE CELLS ARE DRY.

 PERIOD     1     TIME STEP   149     TIME STEP LENGTH  9.1676E+00
 PERIOD TIME  9.6628E+02     TOTAL SIMULATION TIME  9.6628E+02


                 HYDROLOGIC BUDGET SUMMARIES FOR SIMULATED LAKES
     (ALL FLUID FLUXES ARE VOLUMES ADDED TO THE LAKE DURING PRESENT TIME STEP)
     -------------------------------------------------------------------------
 LAKE    STAGE         VOLUME     VOL.CHANGE      PRECIP     EVAPORATION        RUNOFF
   1   117.0278     8.5173E+07    5.8400E+02    6.6465E+05    5.9017E+05    0.0000E+00
   2   111.9632     5.3519E+07    1.3040E+03    6.6465E+05    5.9017E+05    0.0000E+00

            GROUND WATER            SURFACE WATER        WATER
 LAKE    INFLOW     OUTFLOW      INFLOW     OUTFLOW       USE
   1  2.7066E+06  0.0000E+00  9.5579E+06  1.2338E+07  0.0000E+00
   2  2.9438E+06  0.0000E+00  1.4039E+07  1.7056E+07  0.0000E+00

      CONNECTED LAKE   TIME-STEP         STAGE-CHANGE          PERCENT
 LAKE    INFLUX      SURFACE AREA   TIME STEP  CUMULATIVE    DISCREPANCY
   1   0.0000E+00     6.2500E+06   9.3642E-05 -1.2972E+01       0.000
   2   0.0000E+00     6.2500E+06   2.0843E-04 -1.8037E+01       0.000
 --------------------------------------------------------------------------------



            CUMULATIVE HYDROLOGIC BUDGET SUMMARIES FOR SIMULATED LAKES
     (ALL FLUID FLUXES ARE SUMS OF VOLUMES ADDED TO THE LAKE SINCE INITIAL TIME)
     ---------------------------------------------------------------------------
 LAKE       PRECIP       EVAP       RUNOFF
   1     7.0055E+07  6.2204E+07  0.0000E+00
   2     7.0055E+07  6.2204E+07  0.0000E+00

            GROUND WATER            SURFACE WATER
 LAKE    INFLOW     OUTFLOW      INFLOW     OUTFLOW
   1  2.0989E+08  1.5644E+06  9.4110E+08  1.2384E+09
   2  2.3650E+08  1.4259E+06  1.3737E+09  1.7294E+09

         WATER    CONNECTED LAKE   CHANGE       PERCENT
 LAKE     USE         INFLUX       IN VOL.    DISCREPANCY
   1   0.0000E+00   0.0000E+00  -8.1075E+07      0.000
   2   0.0000E+00   0.0000E+00  -1.1273E+08      0.000
 --------------------------------------------------------------------------------

 
 SOLVING FOR HEAD 
     4 ITERATIONS FOR TIME STEP 150 IN STRESS PERIOD    1

 HEAD/DRAWDOWN PRINTOUT FLAG = 1     TOTAL BUDGET PRINTOUT FLAG = 1
 CELL-BY-CELL FLOW TERM FLAG = 1

 OUTPUT FLAGS FOR EACH LAYER:
          HEAD    DRAWDOWN  HEAD  DRAWDOWN
 LAYER  PRINTOUT  PRINTOUT  SAVE    SAVE
 -----------------------------------------
    1       0         0       0       0
    2       0         0       0       0
    3       0         0       0       0
    4       0         0       0       0
    5       1         0       0       0



 STREAM LISTING     PERIOD      1   STEP      150

 LAYER ROW COL. STREAM  RCH.  FLOW INTO     FLOW TO   FLOW OUT OF   OVRLND.     DIRECT     STREAM       STREAM     STREAM     STREAM   STREAMBED  STREAMBED
                SEG.NO.  NO.  STRM. RCH.    AQUIFER    STRM. RCH.    RUNOFF     PRECIP       ET          HEAD       DEPTH      WIDTH   CONDCTNC.   GRADIENT

   1    2    5     1     1    6.9120E+05 -8.0022E+04   7.7122E+05  0.000E+00  0.000E+00  0.000E+00  1.25330E+02  1.382E+00  5.000E+00  5.000E+03 -3.201E+01
   1    3    5     1     2    7.7122E+05 -5.6339E+04   8.2756E+05  0.000E+00  0.000E+00  0.000E+00  1.24303E+02  1.458E+00  5.000E+00  5.000E+03 -2.254E+01
   1    4    5     1     3    8.2756E+05 -5.3310E+04   8.8087E+05  0.000E+00  0.000E+00  0.000E+00  1.23258E+02  1.517E+00  5.000E+00  5.000E+03 -2.132E+01
   1    4    6     1     4    8.8087E+05 -4.3573E+04   9.2444E+05  0.000E+00  0.000E+00  0.000E+00  1.22206E+02  1.568E+00  5.000E+00  5.000E+03 -1.743E+01
   1    4    7     1     5    9.2444E+05 -2.1216E+04   9.4566E+05  0.000E+00  0.000E+00  0.000E+00  1.21412E+02  1.602E+00  5.000E+00  2.500E+03 -1.697E+01
   1    4    8     1     6    9.4566E+05 -3.4841E+04   9.8050E+05  0.000E+00  0.000E+00  0.000E+00  1.20751E+02  1.630E+00  5.000E+00  3.750E+03 -1.858E+01
   1    5    8     1     7    9.8050E+05 -3.6767E+04   1.0173E+06  0.000E+00  0.000E+00  0.000E+00  1.19822E+02  1.666E+00  5.000E+00  5.000E+03 -1.471E+01
   1    6    8     1     8    1.0173E+06 -2.5323E+04   1.0426E+06  0.000E+00  0.000E+00  0.000E+00  1.18749E+02  1.697E+00  5.000E+00  5.000E+03 -1.013E+01
   1   12    9     2     1    1.3460E+06 -2.7183E+04   1.3731E+06  0.000E+00  0.000E+00  0.000E+00  1.16631E+02  2.191E+00  5.000E+00  5.000E+03 -1.087E+01
   1   13    9     2     2    1.3731E+06 -4.2796E+04   1.4159E+06  0.000E+00  0.000E+00  0.000E+00  1.15844E+02  2.225E+00  5.000E+00  5.000E+03 -1.712E+01
   1   14   10     2     3    1.4159E+06 -2.3106E+04   1.4390E+06  0.000E+00  0.000E+00  0.000E+00  1.15236E+02  2.256E+00  5.000E+00  2.795E+03 -1.653E+01
   1   14   10     2     4    1.4390E+06 -2.4325E+04   1.4634E+06  0.000E+00  0.000E+00  0.000E+00  1.14799E+02  2.279E+00  5.000E+00  2.795E+03 -1.741E+01
   1   15   10     2     5    1.4634E+06 -4.0865E+04   1.5042E+06  0.000E+00  0.000E+00  0.000E+00  1.14190E+02  2.309E+00  5.000E+00  5.000E+03 -1.635E+01
   1   16   10     2     6    1.5042E+06 -2.7316E+04   1.5315E+06  0.000E+00  0.000E+00  0.000E+00  1.13401E+02  2.341E+00  5.000E+00  5.000E+03 -1.093E+01
   1   22   10     3     1    1.8607E+06 -2.7787E+04   1.8885E+06  0.000E+00  0.000E+00  0.000E+00  1.11502E+02  2.546E+00  5.000E+00  5.000E+03 -1.111E+01
   1   23   10     3     2    1.8885E+06 -4.0042E+04   1.9286E+06  0.000E+00  0.000E+00  0.000E+00  1.10702E+02  2.574E+00  5.000E+00  3.750E+03 -2.136E+01
   1   23   11     3     3    1.9286E+06 -2.3735E+04   1.9523E+06  0.000E+00  0.000E+00  0.000E+00  1.10136E+02  2.599E+00  5.000E+00  2.500E+03 -1.899E+01
   1   23   12     3     4    1.9523E+06 -4.7097E+04   1.9994E+06  0.000E+00  0.000E+00  0.000E+00  1.09455E+02  2.628E+00  5.000E+00  5.000E+03 -1.884E+01
   1   23   13     3     5    1.9994E+06 -5.0742E+04   2.0501E+06  0.000E+00  0.000E+00  0.000E+00  1.08548E+02  2.667E+00  5.000E+00  5.000E+03 -2.030E+01
   1   23   14     3     6    2.0501E+06 -5.4470E+04   2.1046E+06  0.000E+00  0.000E+00  0.000E+00  1.07644E+02  2.708E+00  5.000E+00  5.000E+03 -2.179E+01
   1   23   15     3     7    2.1046E+06 -6.1830E+04   2.1664E+06  0.000E+00  0.000E+00  0.000E+00  1.06743E+02  2.753E+00  5.000E+00  5.000E+03 -2.473E+01
   1   23   16     3     8    2.1664E+06 -9.0019E+04   2.2565E+06  0.000E+00  0.000E+00  0.000E+00  1.05856E+02  2.812E+00  5.000E+00  5.000E+03 -3.601E+01





     0  LAKE CELLS ARE DRY.

 PERIOD     1     TIME STEP   150     TIME STEP LENGTH  9.2135E+00
 PERIOD TIME  9.7549E+02     TOTAL SIMULATION TIME  9.7549E+02


                 HYDROLOGIC BUDGET SUMMARIES FOR SIMULATED LAKES
     (ALL FLUID FLUXES ARE VOLUMES ADDED TO THE LAKE DURING PRESENT TIME STEP)
     -------------------------------------------------------------------------
 LAKE    STAGE         VOLUME     VOL.CHANGE      PRECIP     EVAPORATION        RUNOFF
   1   117.0279     8.5174E+07    5.5200E+02    6.6798E+05    5.9312E+05    0.0000E+00
   2   111.9634     5.3520E+07    1.2280E+03    6.6798E+05    5.9312E+05    0.0000E+00

            GROUND WATER            SURFACE WATER        WATER
 LAKE    INFLOW     OUTFLOW      INFLOW     OUTFLOW       USE
   1  2.7207E+06  0.0000E+00  9.6059E+06  1.2401E+07  0.0000E+00
   2  2.9593E+06  0.0000E+00  1.4111E+07  1.7144E+07  0.0000E+00

      CONNECTED LAKE   TIME-STEP         STAGE-CHANGE          PERCENT
 LAKE    INFLUX      SURFACE AREA   TIME STEP  CUMULATIVE    DISCREPANCY
   1   0.0000E+00     6.2500E+06   8.7937E-05 -1.2972E+01       0.000
   2   0.0000E+00     6.2500E+06   1.9620E-04 -1.8037E+01       0.000
 --------------------------------------------------------------------------------



            CUMULATIVE HYDROLOGIC BUDGET SUMMARIES FOR SIMULATED LAKES
     (ALL FLUID FLUXES ARE SUMS OF VOLUMES ADDED TO THE LAKE SINCE INITIAL TIME)
     ---------------------------------------------------------------------------
 LAKE       PRECIP       EVAP       RUNOFF
   1     7.0723E+07  6.2797E+07  0.0000E+00
   2     7.0723E+07  6.2797E+07  0.0000E+00

            GROUND WATER            SURFACE WATER
 LAKE    INFLOW     OUTFLOW      INFLOW     OUTFLOW
   1  2.1261E+08  1.5644E+06  9.5071E+08  1.2508E+09
   2  2.3946E+08  1.4259E+06  1.3878E+09  1.7465E+09

         WATER    CONNECTED LAKE   CHANGE       PERCENT
 LAKE     USE         INFLUX       IN VOL.    DISCREPANCY
   1   0.0000E+00   0.0000E+00  -8.1075E+07      0.000
   2   0.0000E+00   0.0000E+00  -1.1273E+08      0.000
 --------------------------------------------------------------------------------

1
              HEAD IN LAYER   5 AT END OF TIME STEP 150 IN STRESS PERIOD    1
  ---------------------------------------------------------------------------

          1      2      3      4      5      6      7      8      9     10
 .........................................................................
   1   160.0  158.9  157.3  155.8  154.2  152.7  151.5  150.8  150.0  149.2
   2   160.0  158.2  155.3  151.1  141.4  146.7  147.2  147.2  146.9  146.6
   3   160.0  157.5  153.6  147.6  135.6  139.9  140.8  141.3  142.1  142.8
   4   160.0  157.3  153.0  146.7  133.9  130.9  129.9  130.1  135.4  138.2
   5   160.0  157.3  153.2  148.3  141.8  136.2  131.2  127.2  131.5  134.5
   6   160.0  157.4  153.6  149.2  143.7  136.2  128.4  123.8  126.1  128.1
   7   160.0  157.5  153.7  149.5  143.6  133.5  117.9  117.3  117.3  117.4
   8   160.0  157.5  153.8  149.6  143.6  132.8  117.5  117.1  117.0  117.1
   9   160.0  157.5  153.9  149.7  143.8  132.7  117.5  117.0  117.0  117.0
  10   160.0  157.6  154.0  149.9  144.1  133.3  117.6  117.1  117.0  117.1
  11   160.0  157.6  154.1  150.1  144.7  134.6  118.0  117.3  117.2  117.3
  12   160.0  157.6  154.2  150.5  145.8  138.6  130.8  126.5  122.1  125.0
  13   160.0  157.7  154.4  151.0  146.9  141.4  135.7  130.9  124.4  127.7
  14   160.0  157.7  154.4  151.1  147.3  142.3  137.5  133.5  128.9  123.5
  15   160.0  157.7  154.4  150.9  146.8  141.3  136.1  132.2  127.8  122.4
  16   160.0  157.6  154.2  150.4  145.4  137.7  129.4  125.5  122.2  118.9
  17   160.0  157.6  154.1  150.0  144.1  132.7  113.1  112.4  112.3  112.2
  18   160.0  157.6  154.0  149.9  143.6  131.1  112.6  112.0  112.0  112.0
  19   160.0  157.6  154.0  149.9  143.5  130.7  112.6  112.0  112.0  112.0
  20   160.0  157.6  154.1  150.0  143.8  131.2  112.6  112.0  112.0  112.0
  21   160.0  157.7  154.2  150.3  144.5  133.1  113.2  112.4  112.3  112.2
  22   160.0  157.7  154.5  150.9  146.1  138.6  130.3  126.1  122.1  117.1
  23   160.0  157.9  154.9  151.9  148.3  143.5  138.8  135.0  129.8  121.4
  24   160.0  158.0  155.4  152.8  150.0  146.8  143.9  141.8  139.5  137.2
  25   160.0  158.2  155.9  153.7  151.5  149.1  147.2  145.9  144.6  143.3
  26   160.0  158.5  156.6  154.8  153.0  151.2  149.8  148.8  147.9  147.0
  27   160.0  158.9  157.3  155.8  154.2  152.7  151.5  150.8  150.0  149.2
1
              HEAD IN LAYER   5 AT END OF TIME STEP 150 IN STRESS PERIOD    1
  ---------------------------------------------------------------------------

         11     12     13     14     15     16     17
 ....................................................
   1   148.5  147.3  145.8  144.2  142.7  141.1  140.0
   2   146.2  145.5  144.4  143.1  141.8  140.5  140.0
   3   143.1  143.3  142.8  141.9  141.0  140.1  140.0
   4   139.8  141.1  141.4  141.0  140.4  139.9  140.0
   5   136.5  138.7  140.0  140.3  140.0  139.8  140.0
   6   130.4  135.1  138.4  139.5  139.7  139.7  140.0
   7   117.9  131.2  137.1  139.0  139.5  139.6  140.0
   8   117.5  129.9  136.6  138.8  139.4  139.6  140.0
   9   117.4  129.5  136.3  138.6  139.3  139.5  140.0
  10   117.4  129.6  136.3  138.6  139.3  139.5  140.0
  11   117.8  130.5  136.6  138.6  139.3  139.5  140.0
  12   127.9  133.4  137.3  138.8  139.3  139.5  140.0
  13   130.9  135.0  137.8  139.0  139.3  139.5  140.0
  14   129.2  134.6  137.7  138.9  139.3  139.5  140.0
  15   127.7  133.5  137.1  138.5  139.1  139.4  140.0
  16   123.5  130.7  135.8  137.9  138.7  139.3  140.0
  17   112.8  127.0  134.5  137.2  138.3  139.1  140.0
  18   112.4  125.6  133.7  136.6  137.8  138.9  140.0
  19   112.4  124.8  132.9  135.8  137.2  138.6  140.0
  20   112.4  124.3  131.9  134.8  136.3  138.1  140.0
  21   112.6  124.0  130.7  133.3  134.9  137.2  140.0
  22   119.7  124.1  127.9  129.9  131.4  134.8  140.0
  23   119.7  118.9  118.7  118.6  119.1  123.9  140.0
  24   135.7  134.1  132.9  132.2  132.5  135.2  140.0
  25   142.2  140.8  139.3  138.3  137.8  138.5  140.0
  26   146.1  144.9  143.4  142.0  140.9  140.1  140.0
  27   148.5  147.3  145.8  144.2  142.7  141.1  140.0
1
  VOLUMETRIC BUDGET FOR ENTIRE MODEL AT END OF TIME STEP150 IN STRESS PERIOD   1
  ------------------------------------------------------------------------------

     CUMULATIVE VOLUMES      L**3       RATES FOR THIS TIME STEP      L**3/T
     ------------------                 ------------------------

           IN:                                      IN:
           ---                                      ---
             STORAGE =     2934567.7500               STORAGE =           0.0000
       CONSTANT HEAD =  1023790336.0000         CONSTANT HEAD =      542454.0625
                  ET =           0.0000                    ET =           0.0000
            RECHARGE =  2687480064.0000              RECHARGE =     2755000.0000
     SPECIFIED FLOWS =           0.0000       SPECIFIED FLOWS =           0.0000
      STREAM LEAKAGE =     3694574.2500        STREAM LEAKAGE =           0.0000
       LAKE  SEEPAGE =     2990331.7500         LAKE  SEEPAGE =           0.0000

            TOTAL IN =  3720889856.0000              TOTAL IN =     3297454.0000

          OUT:                                     OUT:
          ----                                     ----
             STORAGE =  1270386688.0000               STORAGE =       11665.2881
       CONSTANT HEAD =     1508149.2500         CONSTANT HEAD =        2750.0620
                  ET =  1237460992.0000                    ET =     1733853.2500
            RECHARGE =           0.0000              RECHARGE =           0.0000
     SPECIFIED FLOWS =           0.0000       SPECIFIED FLOWS =           0.0000
      STREAM LEAKAGE =   759454976.0000        STREAM LEAKAGE =      932704.1250
       LAKE  SEEPAGE =   452070976.0000         LAKE  SEEPAGE =      616491.2500

           TOTAL OUT =  3720881664.0000             TOTAL OUT =     3297464.0000

            IN - OUT =        8192.0000              IN - OUT =         -10.0000

 PERCENT DISCREPANCY =           0.00     PERCENT DISCREPANCY =           0.00






          TIME SUMMARY AT END OF TIME STEP 150 IN STRESS PERIOD    1
                    SECONDS     MINUTES      HOURS       DAYS        YEARS
                    -----------------------------------------------------------
   TIME STEP LENGTH 7.96044E+05  13267.      221.12      9.2135     2.52251E-02
 STRESS PERIOD TIME 8.42825E+07 1.40471E+06  23412.      975.49      2.6708    
         TOTAL TIME 8.42825E+07 1.40471E+06  23412.      975.49      2.6708    
1
 
 SOLVING FOR HEAD 
     4 ITERATIONS FOR TIME STEP 151 IN STRESS PERIOD    1

 HEAD/DRAWDOWN PRINTOUT FLAG = 0     TOTAL BUDGET PRINTOUT FLAG = 0
 CELL-BY-CELL FLOW TERM FLAG = 1

 OUTPUT FLAGS FOR ALL LAYERS ARE THE SAME:
   HEAD    DRAWDOWN  HEAD  DRAWDOWN
 PRINTOUT  PRINTOUT  SAVE    SAVE
 ----------------------------------
     0         0       0       0



 STREAM LISTING     PERIOD      1   STEP      151

 LAYER ROW COL. STREAM  RCH.  FLOW INTO     FLOW TO   FLOW OUT OF   OVRLND.     DIRECT     STREAM       STREAM     STREAM     STREAM   STREAMBED  STREAMBED
                SEG.NO.  NO.  STRM. RCH.    AQUIFER    STRM. RCH.    RUNOFF     PRECIP       ET          HEAD       DEPTH      WIDTH   CONDCTNC.   GRADIENT

   1    2    5     1     1    6.9120E+05 -8.0022E+04   7.7122E+05  0.000E+00  0.000E+00  0.000E+00  1.25330E+02  1.382E+00  5.000E+00  5.000E+03 -3.201E+01
   1    3    5     1     2    7.7122E+05 -5.6341E+04   8.2756E+05  0.000E+00  0.000E+00  0.000E+00  1.24303E+02  1.458E+00  5.000E+00  5.000E+03 -2.254E+01
   1    4    5     1     3    8.2756E+05 -5.3314E+04   8.8088E+05  0.000E+00  0.000E+00  0.000E+00  1.23258E+02  1.517E+00  5.000E+00  5.000E+03 -2.133E+01
   1    4    6     1     4    8.8088E+05 -4.3577E+04   9.2445E+05  0.000E+00  0.000E+00  0.000E+00  1.22206E+02  1.568E+00  5.000E+00  5.000E+03 -1.743E+01
   1    4    7     1     5    9.2445E+05 -2.1218E+04   9.4567E+05  0.000E+00  0.000E+00  0.000E+00  1.21412E+02  1.602E+00  5.000E+00  2.500E+03 -1.697E+01
   1    4    8     1     6    9.4567E+05 -3.4844E+04   9.8051E+05  0.000E+00  0.000E+00  0.000E+00  1.20751E+02  1.630E+00  5.000E+00  3.750E+03 -1.858E+01
   1    5    8     1     7    9.8051E+05 -3.6771E+04   1.0173E+06  0.000E+00  0.000E+00  0.000E+00  1.19822E+02  1.666E+00  5.000E+00  5.000E+03 -1.471E+01
   1    6    8     1     8    1.0173E+06 -2.5327E+04   1.0426E+06  0.000E+00  0.000E+00  0.000E+00  1.18749E+02  1.697E+00  5.000E+00  5.000E+03 -1.013E+01
   1   12    9     2     1    1.3460E+06 -2.7190E+04   1.3732E+06  0.000E+00  0.000E+00  0.000E+00  1.16631E+02  2.191E+00  5.000E+00  5.000E+03 -1.088E+01
   1   13    9     2     2    1.3732E+06 -4.2809E+04   1.4160E+06  0.000E+00  0.000E+00  0.000E+00  1.15844E+02  2.225E+00  5.000E+00  5.000E+03 -1.712E+01
   1   14   10     2     3    1.4160E+06 -2.3113E+04   1.4392E+06  0.000E+00  0.000E+00  0.000E+00  1.15236E+02  2.256E+00  5.000E+00  2.795E+03 -1.654E+01
   1   14   10     2     4    1.4392E+06 -2.4332E+04   1.4635E+06  0.000E+00  0.000E+00  0.000E+00  1.14799E+02  2.279E+00  5.000E+00  2.795E+03 -1.741E+01
   1   15   10     2     5    1.4635E+06 -4.0878E+04   1.5044E+06  0.000E+00  0.000E+00  0.000E+00  1.14190E+02  2.309E+00  5.000E+00  5.000E+03 -1.635E+01
   1   16   10     2     6    1.5044E+06 -2.7324E+04   1.5317E+06  0.000E+00  0.000E+00  0.000E+00  1.13401E+02  2.341E+00  5.000E+00  5.000E+03 -1.093E+01
   1   22   10     3     1    1.8610E+06 -2.7791E+04   1.8887E+06  0.000E+00  0.000E+00  0.000E+00  1.11502E+02  2.546E+00  5.000E+00  5.000E+03 -1.112E+01
   1   23   10     3     2    1.8887E+06 -4.0046E+04   1.9288E+06  0.000E+00  0.000E+00  0.000E+00  1.10702E+02  2.574E+00  5.000E+00  3.750E+03 -2.136E+01
   1   23   11     3     3    1.9288E+06 -2.3737E+04   1.9525E+06  0.000E+00  0.000E+00  0.000E+00  1.10137E+02  2.600E+00  5.000E+00  2.500E+03 -1.899E+01
   1   23   12     3     4    1.9525E+06 -4.7102E+04   1.9996E+06  0.000E+00  0.000E+00  0.000E+00  1.09456E+02  2.628E+00  5.000E+00  5.000E+03 -1.884E+01
   1   23   13     3     5    1.9996E+06 -5.0746E+04   2.0504E+06  0.000E+00  0.000E+00  0.000E+00  1.08549E+02  2.667E+00  5.000E+00  5.000E+03 -2.030E+01
   1   23   14     3     6    2.0504E+06 -5.4473E+04   2.1049E+06  0.000E+00  0.000E+00  0.000E+00  1.07644E+02  2.708E+00  5.000E+00  5.000E+03 -2.179E+01
   1   23   15     3     7    2.1049E+06 -6.1832E+04   2.1667E+06  0.000E+00  0.000E+00  0.000E+00  1.06744E+02  2.753E+00  5.000E+00  5.000E+03 -2.473E+01
   1   23   16     3     8    2.1667E+06 -9.0020E+04   2.2567E+06  0.000E+00  0.000E+00  0.000E+00  1.05856E+02  2.812E+00  5.000E+00  5.000E+03 -3.601E+01





     0  LAKE CELLS ARE DRY.

 PERIOD     1     TIME STEP   151     TIME STEP LENGTH  9.2595E+00
 PERIOD TIME  9.8475E+02     TOTAL SIMULATION TIME  9.8475E+02


                 HYDROLOGIC BUDGET SUMMARIES FOR SIMULATED LAKES
     (ALL FLUID FLUXES ARE VOLUMES ADDED TO THE LAKE DURING PRESENT TIME STEP)
     -------------------------------------------------------------------------
 LAKE    STAGE         VOLUME     VOL.CHANGE      PRECIP     EVAPORATION        RUNOFF
   1   117.0280     8.5174E+07    5.2000E+02    6.7132E+05    5.9608E+05    0.0000E+00
   2   111.9636     5.3521E+07    1.1520E+03    6.7132E+05    5.9608E+05    0.0000E+00

            GROUND WATER            SURFACE WATER        WATER
 LAKE    INFLOW     OUTFLOW      INFLOW     OUTFLOW       USE
   1  2.7349E+06  0.0000E+00  9.6541E+06  1.2464E+07  0.0000E+00
   2  2.9748E+06  0.0000E+00  1.4183E+07  1.7232E+07  0.0000E+00

      CONNECTED LAKE   TIME-STEP         STAGE-CHANGE          PERCENT
 LAKE    INFLUX      SURFACE AREA   TIME STEP  CUMULATIVE    DISCREPANCY
   1   0.0000E+00     6.2500E+06   8.3608E-05 -1.2972E+01       0.000
   2   0.0000E+00     6.2500E+06   1.8478E-04 -1.8036E+01       0.000
 --------------------------------------------------------------------------------



            CUMULATIVE HYDROLOGIC BUDGET SUMMARIES FOR SIMULATED LAKES
     (ALL FLUID FLUXES ARE SUMS OF VOLUMES ADDED TO THE LAKE SINCE INITIAL TIME)
     ---------------------------------------------------------------------------
 LAKE       PRECIP       EVAP       RUNOFF
   1     7.1395E+07  6.3393E+07  0.0000E+00
   2     7.1395E+07  6.3393E+07  0.0000E+00

            GROUND WATER            SURFACE WATER
 LAKE    INFLOW     OUTFLOW      INFLOW     OUTFLOW
   1  2.1535E+08  1.5644E+06  9.6036E+08  1.2632E+09
   2  2.4243E+08  1.4259E+06  1.4020E+09  1.7637E+09

         WATER    CONNECTED LAKE   CHANGE       PERCENT
 LAKE     USE         INFLUX       IN VOL.    DISCREPANCY
   1   0.0000E+00   0.0000E+00  -8.1074E+07      0.000
   2   0.0000E+00   0.0000E+00  -1.1273E+08      0.000
 --------------------------------------------------------------------------------

 
 SOLVING FOR HEAD 
     4 ITERATIONS FOR TIME STEP 152 IN STRESS PERIOD    1

 HEAD/DRAWDOWN PRINTOUT FLAG = 0     TOTAL BUDGET PRINTOUT FLAG = 0
 CELL-BY-CELL FLOW TERM FLAG = 1

 OUTPUT FLAGS FOR ALL LAYERS ARE THE SAME:
   HEAD    DRAWDOWN  HEAD  DRAWDOWN
 PRINTOUT  PRINTOUT  SAVE    SAVE
 ----------------------------------
     0         0       0       0



 STREAM LISTING     PERIOD      1   STEP      152

 LAYER ROW COL. STREAM  RCH.  FLOW INTO     FLOW TO   FLOW OUT OF   OVRLND.     DIRECT     STREAM       STREAM     STREAM     STREAM   STREAMBED  STREAMBED
                SEG.NO.  NO.  STRM. RCH.    AQUIFER    STRM. RCH.    RUNOFF     PRECIP       ET          HEAD       DEPTH      WIDTH   CONDCTNC.   GRADIENT

   1    2    5     1     1    6.9120E+05 -8.0023E+04   7.7122E+05  0.000E+00  0.000E+00  0.000E+00  1.25330E+02  1.382E+00  5.000E+00  5.000E+03 -3.201E+01
   1    3    5     1     2    7.7122E+05 -5.6342E+04   8.2756E+05  0.000E+00  0.000E+00  0.000E+00  1.24303E+02  1.458E+00  5.000E+00  5.000E+03 -2.254E+01
   1    4    5     1     3    8.2756E+05 -5.3317E+04   8.8088E+05  0.000E+00  0.000E+00  0.000E+00  1.23258E+02  1.517E+00  5.000E+00  5.000E+03 -2.133E+01
   1    4    6     1     4    8.8088E+05 -4.3580E+04   9.2446E+05  0.000E+00  0.000E+00  0.000E+00  1.22206E+02  1.568E+00  5.000E+00  5.000E+03 -1.743E+01
   1    4    7     1     5    9.2446E+05 -2.1219E+04   9.4568E+05  0.000E+00  0.000E+00  0.000E+00  1.21412E+02  1.602E+00  5.000E+00  2.500E+03 -1.698E+01
   1    4    8     1     6    9.4568E+05 -3.4846E+04   9.8053E+05  0.000E+00  0.000E+00  0.000E+00  1.20751E+02  1.630E+00  5.000E+00  3.750E+03 -1.858E+01
   1    5    8     1     7    9.8053E+05 -3.6775E+04   1.0173E+06  0.000E+00  0.000E+00  0.000E+00  1.19822E+02  1.666E+00  5.000E+00  5.000E+03 -1.471E+01
   1    6    8     1     8    1.0173E+06 -2.5330E+04   1.0426E+06  0.000E+00  0.000E+00  0.000E+00  1.18749E+02  1.697E+00  5.000E+00  5.000E+03 -1.013E+01
   1   12    9     2     1    1.3461E+06 -2.7197E+04   1.3733E+06  0.000E+00  0.000E+00  0.000E+00  1.16631E+02  2.191E+00  5.000E+00  5.000E+03 -1.088E+01
   1   13    9     2     2    1.3733E+06 -4.2822E+04   1.4161E+06  0.000E+00  0.000E+00  0.000E+00  1.15844E+02  2.225E+00  5.000E+00  5.000E+03 -1.713E+01
   1   14   10     2     3    1.4161E+06 -2.3120E+04   1.4393E+06  0.000E+00  0.000E+00  0.000E+00  1.15236E+02  2.256E+00  5.000E+00  2.795E+03 -1.654E+01
   1   14   10     2     4    1.4393E+06 -2.4339E+04   1.4636E+06  0.000E+00  0.000E+00  0.000E+00  1.14799E+02  2.279E+00  5.000E+00  2.795E+03 -1.742E+01
   1   15   10     2     5    1.4636E+06 -4.0890E+04   1.5045E+06  0.000E+00  0.000E+00  0.000E+00  1.14190E+02  2.309E+00  5.000E+00  5.000E+03 -1.636E+01
   1   16   10     2     6    1.5045E+06 -2.7332E+04   1.5318E+06  0.000E+00  0.000E+00  0.000E+00  1.13401E+02  2.341E+00  5.000E+00  5.000E+03 -1.093E+01
   1   22   10     3     1    1.8612E+06 -2.7795E+04   1.8890E+06  0.000E+00  0.000E+00  0.000E+00  1.11502E+02  2.547E+00  5.000E+00  5.000E+03 -1.112E+01
   1   23   10     3     2    1.8890E+06 -4.0050E+04   1.9290E+06  0.000E+00  0.000E+00  0.000E+00  1.10702E+02  2.574E+00  5.000E+00  3.750E+03 -2.136E+01
   1   23   11     3     3    1.9290E+06 -2.3739E+04   1.9528E+06  0.000E+00  0.000E+00  0.000E+00  1.10137E+02  2.600E+00  5.000E+00  2.500E+03 -1.899E+01
   1   23   12     3     4    1.9528E+06 -4.7106E+04   1.9999E+06  0.000E+00  0.000E+00  0.000E+00  1.09456E+02  2.628E+00  5.000E+00  5.000E+03 -1.884E+01
   1   23   13     3     5    1.9999E+06 -5.0750E+04   2.0506E+06  0.000E+00  0.000E+00  0.000E+00  1.08549E+02  2.667E+00  5.000E+00  5.000E+03 -2.030E+01
   1   23   14     3     6    2.0506E+06 -5.4476E+04   2.1051E+06  0.000E+00  0.000E+00  0.000E+00  1.07644E+02  2.708E+00  5.000E+00  5.000E+03 -2.179E+01
   1   23   15     3     7    2.1051E+06 -6.1834E+04   2.1669E+06  0.000E+00  0.000E+00  0.000E+00  1.06744E+02  2.754E+00  5.000E+00  5.000E+03 -2.473E+01
   1   23   16     3     8    2.1669E+06 -9.0020E+04   2.2569E+06  0.000E+00  0.000E+00  0.000E+00  1.05856E+02  2.812E+00  5.000E+00  5.000E+03 -3.601E+01





     0  LAKE CELLS ARE DRY.

 PERIOD     1     TIME STEP   152     TIME STEP LENGTH  9.3058E+00
 PERIOD TIME  9.9406E+02     TOTAL SIMULATION TIME  9.9406E+02


                 HYDROLOGIC BUDGET SUMMARIES FOR SIMULATED LAKES
     (ALL FLUID FLUXES ARE VOLUMES ADDED TO THE LAKE DURING PRESENT TIME STEP)
     -------------------------------------------------------------------------
 LAKE    STAGE         VOLUME     VOL.CHANGE      PRECIP     EVAPORATION        RUNOFF
   1   117.0281     8.5175E+07    4.9600E+02    6.7467E+05    5.9906E+05    0.0000E+00
   2   111.9637     5.3522E+07    1.0920E+03    6.7467E+05    5.9906E+05    0.0000E+00

            GROUND WATER            SURFACE WATER        WATER
 LAKE    INFLOW     OUTFLOW      INFLOW     OUTFLOW       USE
   1  2.7491E+06  0.0000E+00  9.7026E+06  1.2527E+07  0.0000E+00
   2  2.9903E+06  0.0000E+00  1.4255E+07  1.7320E+07  0.0000E+00

      CONNECTED LAKE   TIME-STEP         STAGE-CHANGE          PERCENT
 LAKE    INFLUX      SURFACE AREA   TIME STEP  CUMULATIVE    DISCREPANCY
   1   0.0000E+00     6.2500E+06   7.8536E-05 -1.2972E+01       0.000
   2   0.0000E+00     6.2500E+06   1.7444E-04 -1.8036E+01       0.000
 --------------------------------------------------------------------------------



            CUMULATIVE HYDROLOGIC BUDGET SUMMARIES FOR SIMULATED LAKES
     (ALL FLUID FLUXES ARE SUMS OF VOLUMES ADDED TO THE LAKE SINCE INITIAL TIME)
     ---------------------------------------------------------------------------
 LAKE       PRECIP       EVAP       RUNOFF
   1     7.2069E+07  6.3992E+07  0.0000E+00
   2     7.2069E+07  6.3992E+07  0.0000E+00

            GROUND WATER            SURFACE WATER
 LAKE    INFLOW     OUTFLOW      INFLOW     OUTFLOW
   1  2.1810E+08  1.5644E+06  9.7006E+08  1.2757E+09
   2  2.4542E+08  1.4259E+06  1.4163E+09  1.7811E+09

         WATER    CONNECTED LAKE   CHANGE       PERCENT
 LAKE     USE         INFLUX       IN VOL.    DISCREPANCY
   1   0.0000E+00   0.0000E+00  -8.1074E+07      0.000
   2   0.0000E+00   0.0000E+00  -1.1273E+08      0.000
 --------------------------------------------------------------------------------

 
 SOLVING FOR HEAD 
     4 ITERATIONS FOR TIME STEP 153 IN STRESS PERIOD    1

 HEAD/DRAWDOWN PRINTOUT FLAG = 0     TOTAL BUDGET PRINTOUT FLAG = 0
 CELL-BY-CELL FLOW TERM FLAG = 1

 OUTPUT FLAGS FOR ALL LAYERS ARE THE SAME:
   HEAD    DRAWDOWN  HEAD  DRAWDOWN
 PRINTOUT  PRINTOUT  SAVE    SAVE
 ----------------------------------
     0         0       0       0



 STREAM LISTING     PERIOD      1   STEP      153

 LAYER ROW COL. STREAM  RCH.  FLOW INTO     FLOW TO   FLOW OUT OF   OVRLND.     DIRECT     STREAM       STREAM     STREAM     STREAM   STREAMBED  STREAMBED
                SEG.NO.  NO.  STRM. RCH.    AQUIFER    STRM. RCH.    RUNOFF     PRECIP       ET          HEAD       DEPTH      WIDTH   CONDCTNC.   GRADIENT

   1    2    5     1     1    6.9120E+05 -8.0023E+04   7.7122E+05  0.000E+00  0.000E+00  0.000E+00  1.25330E+02  1.382E+00  5.000E+00  5.000E+03 -3.201E+01
   1    3    5     1     2    7.7122E+05 -5.6344E+04   8.2757E+05  0.000E+00  0.000E+00  0.000E+00  1.24303E+02  1.458E+00  5.000E+00  5.000E+03 -2.254E+01
   1    4    5     1     3    8.2757E+05 -5.3321E+04   8.8089E+05  0.000E+00  0.000E+00  0.000E+00  1.23258E+02  1.517E+00  5.000E+00  5.000E+03 -2.133E+01
   1    4    6     1     4    8.8089E+05 -4.3583E+04   9.2447E+05  0.000E+00  0.000E+00  0.000E+00  1.22206E+02  1.568E+00  5.000E+00  5.000E+03 -1.743E+01
   1    4    7     1     5    9.2447E+05 -2.1221E+04   9.4569E+05  0.000E+00  0.000E+00  0.000E+00  1.21412E+02  1.602E+00  5.000E+00  2.500E+03 -1.698E+01
   1    4    8     1     6    9.4569E+05 -3.4848E+04   9.8054E+05  0.000E+00  0.000E+00  0.000E+00  1.20751E+02  1.630E+00  5.000E+00  3.750E+03 -1.859E+01
   1    5    8     1     7    9.8054E+05 -3.6778E+04   1.0173E+06  0.000E+00  0.000E+00  0.000E+00  1.19822E+02  1.666E+00  5.000E+00  5.000E+03 -1.471E+01
   1    6    8     1     8    1.0173E+06 -2.5333E+04   1.0426E+06  0.000E+00  0.000E+00  0.000E+00  1.18749E+02  1.697E+00  5.000E+00  5.000E+03 -1.013E+01
   1   12    9     2     1    1.3462E+06 -2.7204E+04   1.3734E+06  0.000E+00  0.000E+00  0.000E+00  1.16631E+02  2.191E+00  5.000E+00  5.000E+03 -1.088E+01
   1   13    9     2     2    1.3734E+06 -4.2834E+04   1.4162E+06  0.000E+00  0.000E+00  0.000E+00  1.15844E+02  2.225E+00  5.000E+00  5.000E+03 -1.713E+01
   1   14   10     2     3    1.4162E+06 -2.3126E+04   1.4394E+06  0.000E+00  0.000E+00  0.000E+00  1.15236E+02  2.256E+00  5.000E+00  2.795E+03 -1.655E+01
   1   14   10     2     4    1.4394E+06 -2.4346E+04   1.4637E+06  0.000E+00  0.000E+00  0.000E+00  1.14800E+02  2.279E+00  5.000E+00  2.795E+03 -1.742E+01
   1   15   10     2     5    1.4637E+06 -4.0902E+04   1.5046E+06  0.000E+00  0.000E+00  0.000E+00  1.14190E+02  2.310E+00  5.000E+00  5.000E+03 -1.636E+01
   1   16   10     2     6    1.5046E+06 -2.7339E+04   1.5319E+06  0.000E+00  0.000E+00  0.000E+00  1.13402E+02  2.341E+00  5.000E+00  5.000E+03 -1.094E+01
   1   22   10     3     1    1.8614E+06 -2.7798E+04   1.8892E+06  0.000E+00  0.000E+00  0.000E+00  1.11502E+02  2.547E+00  5.000E+00  5.000E+03 -1.112E+01
   1   23   10     3     2    1.8892E+06 -4.0054E+04   1.9292E+06  0.000E+00  0.000E+00  0.000E+00  1.10702E+02  2.574E+00  5.000E+00  3.750E+03 -2.136E+01
   1   23   11     3     3    1.9292E+06 -2.3742E+04   1.9530E+06  0.000E+00  0.000E+00  0.000E+00  1.10137E+02  2.600E+00  5.000E+00  2.500E+03 -1.899E+01
   1   23   12     3     4    1.9530E+06 -4.7110E+04   2.0001E+06  0.000E+00  0.000E+00  0.000E+00  1.09456E+02  2.628E+00  5.000E+00  5.000E+03 -1.884E+01
   1   23   13     3     5    2.0001E+06 -5.0754E+04   2.0508E+06  0.000E+00  0.000E+00  0.000E+00  1.08549E+02  2.667E+00  5.000E+00  5.000E+03 -2.030E+01
   1   23   14     3     6    2.0508E+06 -5.4479E+04   2.1053E+06  0.000E+00  0.000E+00  0.000E+00  1.07644E+02  2.709E+00  5.000E+00  5.000E+03 -2.179E+01
   1   23   15     3     7    2.1053E+06 -6.1836E+04   2.1671E+06  0.000E+00  0.000E+00  0.000E+00  1.06744E+02  2.754E+00  5.000E+00  5.000E+03 -2.473E+01
   1   23   16     3     8    2.1671E+06 -9.0021E+04   2.2572E+06  0.000E+00  0.000E+00  0.000E+00  1.05856E+02  2.812E+00  5.000E+00  5.000E+03 -3.601E+01





     0  LAKE CELLS ARE DRY.

 PERIOD     1     TIME STEP   153     TIME STEP LENGTH  9.3524E+00
 PERIOD TIME  1.0034E+03     TOTAL SIMULATION TIME  1.0034E+03


                 HYDROLOGIC BUDGET SUMMARIES FOR SIMULATED LAKES
     (ALL FLUID FLUXES ARE VOLUMES ADDED TO THE LAKE DURING PRESENT TIME STEP)
     -------------------------------------------------------------------------
 LAKE    STAGE         VOLUME     VOL.CHANGE      PRECIP     EVAPORATION        RUNOFF
   1   117.0281     8.5175E+07    4.4000E+02    6.7805E+05    6.0206E+05    0.0000E+00
   2   111.9639     5.3523E+07    1.0040E+03    6.7805E+05    6.0206E+05    0.0000E+00

            GROUND WATER            SURFACE WATER        WATER
 LAKE    INFLOW     OUTFLOW      INFLOW     OUTFLOW       USE
   1  2.7633E+06  0.0000E+00  9.7512E+06  1.2590E+07  0.0000E+00
   2  3.0059E+06  0.0000E+00  1.4327E+07  1.7408E+07  0.0000E+00

      CONNECTED LAKE   TIME-STEP         STAGE-CHANGE          PERCENT
 LAKE    INFLUX      SURFACE AREA   TIME STEP  CUMULATIVE    DISCREPANCY
   1   0.0000E+00     6.2500E+06   7.1307E-05 -1.2972E+01       0.000
   2   0.0000E+00     6.2500E+06   1.6049E-04 -1.8036E+01       0.000
 --------------------------------------------------------------------------------



            CUMULATIVE HYDROLOGIC BUDGET SUMMARIES FOR SIMULATED LAKES
     (ALL FLUID FLUXES ARE SUMS OF VOLUMES ADDED TO THE LAKE SINCE INITIAL TIME)
     ---------------------------------------------------------------------------
 LAKE       PRECIP       EVAP       RUNOFF
   1     7.2747E+07  6.4594E+07  0.0000E+00
   2     7.2747E+07  6.4594E+07  0.0000E+00

            GROUND WATER            SURFACE WATER
 LAKE    INFLOW     OUTFLOW      INFLOW     OUTFLOW
   1  2.2086E+08  1.5644E+06  9.7981E+08  1.2883E+09
   2  2.4843E+08  1.4259E+06  1.4306E+09  1.7985E+09

         WATER    CONNECTED LAKE   CHANGE       PERCENT
 LAKE     USE         INFLUX       IN VOL.    DISCREPANCY
   1   0.0000E+00   0.0000E+00  -8.1073E+07      0.000
   2   0.0000E+00   0.0000E+00  -1.1272E+08      0.000
 --------------------------------------------------------------------------------

 
 SOLVING FOR HEAD 
     4 ITERATIONS FOR TIME STEP 154 IN STRESS PERIOD    1

 HEAD/DRAWDOWN PRINTOUT FLAG = 0     TOTAL BUDGET PRINTOUT FLAG = 0
 CELL-BY-CELL FLOW TERM FLAG = 1

 OUTPUT FLAGS FOR ALL LAYERS ARE THE SAME:
   HEAD    DRAWDOWN  HEAD  DRAWDOWN
 PRINTOUT  PRINTOUT  SAVE    SAVE
 ----------------------------------
     0         0       0       0



 STREAM LISTING     PERIOD      1   STEP      154

 LAYER ROW COL. STREAM  RCH.  FLOW INTO     FLOW TO   FLOW OUT OF   OVRLND.     DIRECT     STREAM       STREAM     STREAM     STREAM   STREAMBED  STREAMBED
                SEG.NO.  NO.  STRM. RCH.    AQUIFER    STRM. RCH.    RUNOFF     PRECIP       ET          HEAD       DEPTH      WIDTH   CONDCTNC.   GRADIENT

   1    2    5     1     1    6.9120E+05 -8.0024E+04   7.7122E+05  0.000E+00  0.000E+00  0.000E+00  1.25330E+02  1.382E+00  5.000E+00  5.000E+03 -3.201E+01
   1    3    5     1     2    7.7122E+05 -5.6345E+04   8.2757E+05  0.000E+00  0.000E+00  0.000E+00  1.24303E+02  1.458E+00  5.000E+00  5.000E+03 -2.254E+01
   1    4    5     1     3    8.2757E+05 -5.3324E+04   8.8089E+05  0.000E+00  0.000E+00  0.000E+00  1.23258E+02  1.517E+00  5.000E+00  5.000E+03 -2.133E+01
   1    4    6     1     4    8.8089E+05 -4.3586E+04   9.2448E+05  0.000E+00  0.000E+00  0.000E+00  1.22206E+02  1.568E+00  5.000E+00  5.000E+03 -1.743E+01
   1    4    7     1     5    9.2448E+05 -2.1222E+04   9.4570E+05  0.000E+00  0.000E+00  0.000E+00  1.21412E+02  1.602E+00  5.000E+00  2.500E+03 -1.698E+01
   1    4    8     1     6    9.4570E+05 -3.4850E+04   9.8055E+05  0.000E+00  0.000E+00  0.000E+00  1.20751E+02  1.630E+00  5.000E+00  3.750E+03 -1.859E+01
   1    5    8     1     7    9.8055E+05 -3.6782E+04   1.0173E+06  0.000E+00  0.000E+00  0.000E+00  1.19822E+02  1.666E+00  5.000E+00  5.000E+03 -1.471E+01
   1    6    8     1     8    1.0173E+06 -2.5336E+04   1.0427E+06  0.000E+00  0.000E+00  0.000E+00  1.18749E+02  1.697E+00  5.000E+00  5.000E+03 -1.013E+01
   1   12    9     2     1    1.3463E+06 -2.7210E+04   1.3735E+06  0.000E+00  0.000E+00  0.000E+00  1.16631E+02  2.191E+00  5.000E+00  5.000E+03 -1.088E+01
   1   13    9     2     2    1.3735E+06 -4.2845E+04   1.4163E+06  0.000E+00  0.000E+00  0.000E+00  1.15844E+02  2.225E+00  5.000E+00  5.000E+03 -1.714E+01
   1   14   10     2     3    1.4163E+06 -2.3133E+04   1.4395E+06  0.000E+00  0.000E+00  0.000E+00  1.15236E+02  2.257E+00  5.000E+00  2.795E+03 -1.655E+01
   1   14   10     2     4    1.4395E+06 -2.4352E+04   1.4638E+06  0.000E+00  0.000E+00  0.000E+00  1.14800E+02  2.279E+00  5.000E+00  2.795E+03 -1.743E+01
   1   15   10     2     5    1.4638E+06 -4.0913E+04   1.5047E+06  0.000E+00  0.000E+00  0.000E+00  1.14191E+02  2.310E+00  5.000E+00  5.000E+03 -1.637E+01
   1   16   10     2     6    1.5047E+06 -2.7346E+04   1.5321E+06  0.000E+00  0.000E+00  0.000E+00  1.13402E+02  2.341E+00  5.000E+00  5.000E+03 -1.094E+01
   1   22   10     3     1    1.8616E+06 -2.7801E+04   1.8894E+06  0.000E+00  0.000E+00  0.000E+00  1.11503E+02  2.547E+00  5.000E+00  5.000E+03 -1.112E+01
   1   23   10     3     2    1.8894E+06 -4.0058E+04   1.9294E+06  0.000E+00  0.000E+00  0.000E+00  1.10702E+02  2.574E+00  5.000E+00  3.750E+03 -2.136E+01
   1   23   11     3     3    1.9294E+06 -2.3743E+04   1.9532E+06  0.000E+00  0.000E+00  0.000E+00  1.10137E+02  2.600E+00  5.000E+00  2.500E+03 -1.899E+01
   1   23   12     3     4    1.9532E+06 -4.7113E+04   2.0003E+06  0.000E+00  0.000E+00  0.000E+00  1.09456E+02  2.628E+00  5.000E+00  5.000E+03 -1.885E+01
   1   23   13     3     5    2.0003E+06 -5.0757E+04   2.0510E+06  0.000E+00  0.000E+00  0.000E+00  1.08549E+02  2.667E+00  5.000E+00  5.000E+03 -2.030E+01
   1   23   14     3     6    2.0510E+06 -5.4482E+04   2.1055E+06  0.000E+00  0.000E+00  0.000E+00  1.07645E+02  2.709E+00  5.000E+00  5.000E+03 -2.179E+01
   1   23   15     3     7    2.1055E+06 -6.1838E+04   2.1673E+06  0.000E+00  0.000E+00  0.000E+00  1.06744E+02  2.754E+00  5.000E+00  5.000E+03 -2.474E+01
   1   23   16     3     8    2.1673E+06 -9.0021E+04   2.2574E+06  0.000E+00  0.000E+00  0.000E+00  1.05857E+02  2.812E+00  5.000E+00  5.000E+03 -3.601E+01





     0  LAKE CELLS ARE DRY.

 PERIOD     1     TIME STEP   154     TIME STEP LENGTH  9.3991E+00
 PERIOD TIME  1.0128E+03     TOTAL SIMULATION TIME  1.0128E+03


                 HYDROLOGIC BUDGET SUMMARIES FOR SIMULATED LAKES
     (ALL FLUID FLUXES ARE VOLUMES ADDED TO THE LAKE DURING PRESENT TIME STEP)
     -------------------------------------------------------------------------
 LAKE    STAGE         VOLUME     VOL.CHANGE      PRECIP     EVAPORATION        RUNOFF
   1   117.0282     8.5175E+07    4.4000E+02    6.8144E+05    6.0507E+05    0.0000E+00
   2   111.9641     5.3524E+07    9.7200E+02    6.8144E+05    6.0507E+05    0.0000E+00

            GROUND WATER            SURFACE WATER        WATER
 LAKE    INFLOW     OUTFLOW      INFLOW     OUTFLOW       USE
   1  2.7777E+06  0.0000E+00  9.8002E+06  1.2654E+07  0.0000E+00
   2  3.0215E+06  0.0000E+00  1.4400E+07  1.7497E+07  0.0000E+00

      CONNECTED LAKE   TIME-STEP         STAGE-CHANGE          PERCENT
 LAKE    INFLUX      SURFACE AREA   TIME STEP  CUMULATIVE    DISCREPANCY
   1   0.0000E+00     6.2500E+06   6.9361E-05 -1.2972E+01       0.000
   2   0.0000E+00     6.2500E+06   1.5570E-04 -1.8036E+01       0.000
 --------------------------------------------------------------------------------



            CUMULATIVE HYDROLOGIC BUDGET SUMMARIES FOR SIMULATED LAKES
     (ALL FLUID FLUXES ARE SUMS OF VOLUMES ADDED TO THE LAKE SINCE INITIAL TIME)
     ---------------------------------------------------------------------------
 LAKE       PRECIP       EVAP       RUNOFF
   1     7.3429E+07  6.5200E+07  0.0000E+00
   2     7.3429E+07  6.5200E+07  0.0000E+00

            GROUND WATER            SURFACE WATER
 LAKE    INFLOW     OUTFLOW      INFLOW     OUTFLOW
   1  2.2364E+08  1.5644E+06  9.8961E+08  1.3010E+09
   2  2.5145E+08  1.4259E+06  1.4450E+09  1.8160E+09

         WATER    CONNECTED LAKE   CHANGE       PERCENT
 LAKE     USE         INFLUX       IN VOL.    DISCREPANCY
   1   0.0000E+00   0.0000E+00  -8.1073E+07      0.000
   2   0.0000E+00   0.0000E+00  -1.1272E+08      0.000
 --------------------------------------------------------------------------------

 
 SOLVING FOR HEAD 
     4 ITERATIONS FOR TIME STEP 155 IN STRESS PERIOD    1

 HEAD/DRAWDOWN PRINTOUT FLAG = 0     TOTAL BUDGET PRINTOUT FLAG = 0
 CELL-BY-CELL FLOW TERM FLAG = 1

 OUTPUT FLAGS FOR ALL LAYERS ARE THE SAME:
   HEAD    DRAWDOWN  HEAD  DRAWDOWN
 PRINTOUT  PRINTOUT  SAVE    SAVE
 ----------------------------------
     0         0       0       0



 STREAM LISTING     PERIOD      1   STEP      155

 LAYER ROW COL. STREAM  RCH.  FLOW INTO     FLOW TO   FLOW OUT OF   OVRLND.     DIRECT     STREAM       STREAM     STREAM     STREAM   STREAMBED  STREAMBED
                SEG.NO.  NO.  STRM. RCH.    AQUIFER    STRM. RCH.    RUNOFF     PRECIP       ET          HEAD       DEPTH      WIDTH   CONDCTNC.   GRADIENT

   1    2    5     1     1    6.9120E+05 -8.0024E+04   7.7122E+05  0.000E+00  0.000E+00  0.000E+00  1.25330E+02  1.382E+00  5.000E+00  5.000E+03 -3.201E+01
   1    3    5     1     2    7.7122E+05 -5.6346E+04   8.2757E+05  0.000E+00  0.000E+00  0.000E+00  1.24303E+02  1.458E+00  5.000E+00  5.000E+03 -2.254E+01
   1    4    5     1     3    8.2757E+05 -5.3327E+04   8.8090E+05  0.000E+00  0.000E+00  0.000E+00  1.23258E+02  1.517E+00  5.000E+00  5.000E+03 -2.133E+01
   1    4    6     1     4    8.8090E+05 -4.3588E+04   9.2449E+05  0.000E+00  0.000E+00  0.000E+00  1.22206E+02  1.568E+00  5.000E+00  5.000E+03 -1.744E+01
   1    4    7     1     5    9.2449E+05 -2.1223E+04   9.4571E+05  0.000E+00  0.000E+00  0.000E+00  1.21412E+02  1.602E+00  5.000E+00  2.500E+03 -1.698E+01
   1    4    8     1     6    9.4571E+05 -3.4851E+04   9.8056E+05  0.000E+00  0.000E+00  0.000E+00  1.20751E+02  1.630E+00  5.000E+00  3.750E+03 -1.859E+01
   1    5    8     1     7    9.8056E+05 -3.6785E+04   1.0173E+06  0.000E+00  0.000E+00  0.000E+00  1.19822E+02  1.666E+00  5.000E+00  5.000E+03 -1.471E+01
   1    6    8     1     8    1.0173E+06 -2.5338E+04   1.0427E+06  0.000E+00  0.000E+00  0.000E+00  1.18749E+02  1.697E+00  5.000E+00  5.000E+03 -1.014E+01
   1   12    9     2     1    1.3463E+06 -2.7216E+04   1.3735E+06  0.000E+00  0.000E+00  0.000E+00  1.16631E+02  2.192E+00  5.000E+00  5.000E+03 -1.089E+01
   1   13    9     2     2    1.3735E+06 -4.2856E+04   1.4164E+06  0.000E+00  0.000E+00  0.000E+00  1.15844E+02  2.225E+00  5.000E+00  5.000E+03 -1.714E+01
   1   14   10     2     3    1.4164E+06 -2.3138E+04   1.4395E+06  0.000E+00  0.000E+00  0.000E+00  1.15236E+02  2.257E+00  5.000E+00  2.795E+03 -1.656E+01
   1   14   10     2     4    1.4395E+06 -2.4358E+04   1.4639E+06  0.000E+00  0.000E+00  0.000E+00  1.14800E+02  2.279E+00  5.000E+00  2.795E+03 -1.743E+01
   1   15   10     2     5    1.4639E+06 -4.0923E+04   1.5048E+06  0.000E+00  0.000E+00  0.000E+00  1.14191E+02  2.310E+00  5.000E+00  5.000E+03 -1.637E+01
   1   16   10     2     6    1.5048E+06 -2.7352E+04   1.5322E+06  0.000E+00  0.000E+00  0.000E+00  1.13402E+02  2.341E+00  5.000E+00  5.000E+03 -1.094E+01
   1   22   10     3     1    1.8617E+06 -2.7804E+04   1.8895E+06  0.000E+00  0.000E+00  0.000E+00  1.11503E+02  2.547E+00  5.000E+00  5.000E+03 -1.112E+01
   1   23   10     3     2    1.8895E+06 -4.0061E+04   1.9296E+06  0.000E+00  0.000E+00  0.000E+00  1.10703E+02  2.575E+00  5.000E+00  3.750E+03 -2.137E+01
   1   23   11     3     3    1.9296E+06 -2.3745E+04   1.9533E+06  0.000E+00  0.000E+00  0.000E+00  1.10137E+02  2.600E+00  5.000E+00  2.500E+03 -1.900E+01
   1   23   12     3     4    1.9533E+06 -4.7116E+04   2.0005E+06  0.000E+00  0.000E+00  0.000E+00  1.09456E+02  2.629E+00  5.000E+00  5.000E+03 -1.885E+01
   1   23   13     3     5    2.0005E+06 -5.0760E+04   2.0512E+06  0.000E+00  0.000E+00  0.000E+00  1.08549E+02  2.667E+00  5.000E+00  5.000E+03 -2.030E+01
   1   23   14     3     6    2.0512E+06 -5.4485E+04   2.1057E+06  0.000E+00  0.000E+00  0.000E+00  1.07645E+02  2.709E+00  5.000E+00  5.000E+03 -2.179E+01
   1   23   15     3     7    2.1057E+06 -6.1840E+04   2.1675E+06  0.000E+00  0.000E+00  0.000E+00  1.06744E+02  2.754E+00  5.000E+00  5.000E+03 -2.474E+01
   1   23   16     3     8    2.1675E+06 -9.0022E+04   2.2576E+06  0.000E+00  0.000E+00  0.000E+00  1.05857E+02  2.812E+00  5.000E+00  5.000E+03 -3.601E+01





     0  LAKE CELLS ARE DRY.

 PERIOD     1     TIME STEP   155     TIME STEP LENGTH  9.4461E+00
 PERIOD TIME  1.0223E+03     TOTAL SIMULATION TIME  1.0223E+03


                 HYDROLOGIC BUDGET SUMMARIES FOR SIMULATED LAKES
     (ALL FLUID FLUXES ARE VOLUMES ADDED TO THE LAKE DURING PRESENT TIME STEP)
     -------------------------------------------------------------------------
 LAKE    STAGE         VOLUME     VOL.CHANGE      PRECIP     EVAPORATION        RUNOFF
   1   117.0283     8.5176E+07    3.9200E+02    6.8484E+05    6.0809E+05    0.0000E+00
   2   111.9642     5.3525E+07    8.7600E+02    6.8484E+05    6.0809E+05    0.0000E+00

            GROUND WATER            SURFACE WATER        WATER
 LAKE    INFLOW     OUTFLOW      INFLOW     OUTFLOW       USE
   1  2.7920E+06  0.0000E+00  9.8493E+06  1.2718E+07  0.0000E+00
   2  3.0372E+06  0.0000E+00  1.4473E+07  1.7586E+07  0.0000E+00

      CONNECTED LAKE   TIME-STEP         STAGE-CHANGE          PERCENT
 LAKE    INFLUX      SURFACE AREA   TIME STEP  CUMULATIVE    DISCREPANCY
   1   0.0000E+00     6.2500E+06   6.2906E-05 -1.2972E+01       0.000
   2   0.0000E+00     6.2500E+06   1.4009E-04 -1.8036E+01       0.000
 --------------------------------------------------------------------------------



            CUMULATIVE HYDROLOGIC BUDGET SUMMARIES FOR SIMULATED LAKES
     (ALL FLUID FLUXES ARE SUMS OF VOLUMES ADDED TO THE LAKE SINCE INITIAL TIME)
     ---------------------------------------------------------------------------
 LAKE       PRECIP       EVAP       RUNOFF
   1     7.4114E+07  6.5808E+07  0.0000E+00
   2     7.4114E+07  6.5808E+07  0.0000E+00

            GROUND WATER            SURFACE WATER
 LAKE    INFLOW     OUTFLOW      INFLOW     OUTFLOW
   1  2.2643E+08  1.5644E+06  9.9946E+08  1.3137E+09
   2  2.5449E+08  1.4259E+06  1.4595E+09  1.8335E+09

         WATER    CONNECTED LAKE   CHANGE       PERCENT
 LAKE     USE         INFLUX       IN VOL.    DISCREPANCY
   1   0.0000E+00   0.0000E+00  -8.1073E+07      0.000
   2   0.0000E+00   0.0000E+00  -1.1272E+08      0.000
 --------------------------------------------------------------------------------

 
 SOLVING FOR HEAD 
     4 ITERATIONS FOR TIME STEP 156 IN STRESS PERIOD    1

 HEAD/DRAWDOWN PRINTOUT FLAG = 0     TOTAL BUDGET PRINTOUT FLAG = 0
 CELL-BY-CELL FLOW TERM FLAG = 1

 OUTPUT FLAGS FOR ALL LAYERS ARE THE SAME:
   HEAD    DRAWDOWN  HEAD  DRAWDOWN
 PRINTOUT  PRINTOUT  SAVE    SAVE
 ----------------------------------
     0         0       0       0



 STREAM LISTING     PERIOD      1   STEP      156

 LAYER ROW COL. STREAM  RCH.  FLOW INTO     FLOW TO   FLOW OUT OF   OVRLND.     DIRECT     STREAM       STREAM     STREAM     STREAM   STREAMBED  STREAMBED
                SEG.NO.  NO.  STRM. RCH.    AQUIFER    STRM. RCH.    RUNOFF     PRECIP       ET          HEAD       DEPTH      WIDTH   CONDCTNC.   GRADIENT

   1    2    5     1     1    6.9120E+05 -8.0024E+04   7.7122E+05  0.000E+00  0.000E+00  0.000E+00  1.25330E+02  1.382E+00  5.000E+00  5.000E+03 -3.201E+01
   1    3    5     1     2    7.7122E+05 -5.6348E+04   8.2757E+05  0.000E+00  0.000E+00  0.000E+00  1.24303E+02  1.458E+00  5.000E+00  5.000E+03 -2.254E+01
   1    4    5     1     3    8.2757E+05 -5.3329E+04   8.8090E+05  0.000E+00  0.000E+00  0.000E+00  1.23258E+02  1.517E+00  5.000E+00  5.000E+03 -2.133E+01
   1    4    6     1     4    8.8090E+05 -4.3590E+04   9.2449E+05  0.000E+00  0.000E+00  0.000E+00  1.22206E+02  1.568E+00  5.000E+00  5.000E+03 -1.744E+01
   1    4    7     1     5    9.2449E+05 -2.1224E+04   9.4572E+05  0.000E+00  0.000E+00  0.000E+00  1.21412E+02  1.602E+00  5.000E+00  2.500E+03 -1.698E+01
   1    4    8     1     6    9.4572E+05 -3.4853E+04   9.8057E+05  0.000E+00  0.000E+00  0.000E+00  1.20751E+02  1.630E+00  5.000E+00  3.750E+03 -1.859E+01
   1    5    8     1     7    9.8057E+05 -3.6788E+04   1.0174E+06  0.000E+00  0.000E+00  0.000E+00  1.19822E+02  1.666E+00  5.000E+00  5.000E+03 -1.472E+01
   1    6    8     1     8    1.0174E+06 -2.5341E+04   1.0427E+06  0.000E+00  0.000E+00  0.000E+00  1.18749E+02  1.697E+00  5.000E+00  5.000E+03 -1.014E+01
   1   12    9     2     1    1.3464E+06 -2.7221E+04   1.3736E+06  0.000E+00  0.000E+00  0.000E+00  1.16631E+02  2.192E+00  5.000E+00  5.000E+03 -1.089E+01
   1   13    9     2     2    1.3736E+06 -4.2866E+04   1.4165E+06  0.000E+00  0.000E+00  0.000E+00  1.15844E+02  2.225E+00  5.000E+00  5.000E+03 -1.715E+01
   1   14   10     2     3    1.4165E+06 -2.3144E+04   1.4396E+06  0.000E+00  0.000E+00  0.000E+00  1.15236E+02  2.257E+00  5.000E+00  2.795E+03 -1.656E+01
   1   14   10     2     4    1.4396E+06 -2.4363E+04   1.4640E+06  0.000E+00  0.000E+00  0.000E+00  1.14800E+02  2.279E+00  5.000E+00  2.795E+03 -1.743E+01
   1   15   10     2     5    1.4640E+06 -4.0932E+04   1.5049E+06  0.000E+00  0.000E+00  0.000E+00  1.14191E+02  2.310E+00  5.000E+00  5.000E+03 -1.637E+01
   1   16   10     2     6    1.5049E+06 -2.7358E+04   1.5323E+06  0.000E+00  0.000E+00  0.000E+00  1.13402E+02  2.342E+00  5.000E+00  5.000E+03 -1.094E+01
   1   22   10     3     1    1.8619E+06 -2.7807E+04   1.8897E+06  0.000E+00  0.000E+00  0.000E+00  1.11503E+02  2.547E+00  5.000E+00  5.000E+03 -1.112E+01
   1   23   10     3     2    1.8897E+06 -4.0064E+04   1.9298E+06  0.000E+00  0.000E+00  0.000E+00  1.10703E+02  2.575E+00  5.000E+00  3.750E+03 -2.137E+01
   1   23   11     3     3    1.9298E+06 -2.3747E+04   1.9535E+06  0.000E+00  0.000E+00  0.000E+00  1.10137E+02  2.600E+00  5.000E+00  2.500E+03 -1.900E+01
   1   23   12     3     4    1.9535E+06 -4.7120E+04   2.0006E+06  0.000E+00  0.000E+00  0.000E+00  1.09456E+02  2.629E+00  5.000E+00  5.000E+03 -1.885E+01
   1   23   13     3     5    2.0006E+06 -5.0763E+04   2.0514E+06  0.000E+00  0.000E+00  0.000E+00  1.08549E+02  2.668E+00  5.000E+00  5.000E+03 -2.031E+01
   1   23   14     3     6    2.0514E+06 -5.4487E+04   2.1059E+06  0.000E+00  0.000E+00  0.000E+00  1.07645E+02  2.709E+00  5.000E+00  5.000E+03 -2.179E+01
   1   23   15     3     7    2.1059E+06 -6.1841E+04   2.1677E+06  0.000E+00  0.000E+00  0.000E+00  1.06744E+02  2.754E+00  5.000E+00  5.000E+03 -2.474E+01
   1   23   16     3     8    2.1677E+06 -9.0022E+04   2.2577E+06  0.000E+00  0.000E+00  0.000E+00  1.05857E+02  2.813E+00  5.000E+00  5.000E+03 -3.601E+01





     0  LAKE CELLS ARE DRY.

 PERIOD     1     TIME STEP   156     TIME STEP LENGTH  9.4933E+00
 PERIOD TIME  1.0317E+03     TOTAL SIMULATION TIME  1.0317E+03


                 HYDROLOGIC BUDGET SUMMARIES FOR SIMULATED LAKES
     (ALL FLUID FLUXES ARE VOLUMES ADDED TO THE LAKE DURING PRESENT TIME STEP)
     -------------------------------------------------------------------------
 LAKE    STAGE         VOLUME     VOL.CHANGE      PRECIP     EVAPORATION        RUNOFF
   1   117.0283     8.5176E+07    3.6000E+02    6.8827E+05    6.1113E+05    0.0000E+00
   2   111.9643     5.3526E+07    8.2000E+02    6.8827E+05    6.1113E+05    0.0000E+00

            GROUND WATER            SURFACE WATER        WATER
 LAKE    INFLOW     OUTFLOW      INFLOW     OUTFLOW       USE
   1  2.8063E+06  0.0000E+00  9.8987E+06  1.2782E+07  0.0000E+00
   2  3.0528E+06  0.0000E+00  1.4546E+07  1.7676E+07  0.0000E+00

      CONNECTED LAKE   TIME-STEP         STAGE-CHANGE          PERCENT
 LAKE    INFLUX      SURFACE AREA   TIME STEP  CUMULATIVE    DISCREPANCY
   1   0.0000E+00     6.2500E+06   5.8474E-05 -1.2972E+01       0.000
   2   0.0000E+00     6.2500E+06   1.3120E-04 -1.8036E+01       0.000
 --------------------------------------------------------------------------------



            CUMULATIVE HYDROLOGIC BUDGET SUMMARIES FOR SIMULATED LAKES
     (ALL FLUID FLUXES ARE SUMS OF VOLUMES ADDED TO THE LAKE SINCE INITIAL TIME)
     ---------------------------------------------------------------------------
 LAKE       PRECIP       EVAP       RUNOFF
   1     7.4802E+07  6.6419E+07  0.0000E+00
   2     7.4802E+07  6.6419E+07  0.0000E+00

            GROUND WATER            SURFACE WATER
 LAKE    INFLOW     OUTFLOW      INFLOW     OUTFLOW
   1  2.2924E+08  1.5644E+06  1.0094E+09  1.3265E+09
   2  2.5754E+08  1.4259E+06  1.4740E+09  1.8512E+09

         WATER    CONNECTED LAKE   CHANGE       PERCENT
 LAKE     USE         INFLUX       IN VOL.    DISCREPANCY
   1   0.0000E+00   0.0000E+00  -8.1072E+07      0.000
   2   0.0000E+00   0.0000E+00  -1.1272E+08      0.000
 --------------------------------------------------------------------------------

 
 SOLVING FOR HEAD 
     4 ITERATIONS FOR TIME STEP 157 IN STRESS PERIOD    1

 HEAD/DRAWDOWN PRINTOUT FLAG = 0     TOTAL BUDGET PRINTOUT FLAG = 0
 CELL-BY-CELL FLOW TERM FLAG = 1

 OUTPUT FLAGS FOR ALL LAYERS ARE THE SAME:
   HEAD    DRAWDOWN  HEAD  DRAWDOWN
 PRINTOUT  PRINTOUT  SAVE    SAVE
 ----------------------------------
     0         0       0       0



 STREAM LISTING     PERIOD      1   STEP      157

 LAYER ROW COL. STREAM  RCH.  FLOW INTO     FLOW TO   FLOW OUT OF   OVRLND.     DIRECT     STREAM       STREAM     STREAM     STREAM   STREAMBED  STREAMBED
                SEG.NO.  NO.  STRM. RCH.    AQUIFER    STRM. RCH.    RUNOFF     PRECIP       ET          HEAD       DEPTH      WIDTH   CONDCTNC.   GRADIENT

   1    2    5     1     1    6.9120E+05 -8.0025E+04   7.7122E+05  0.000E+00  0.000E+00  0.000E+00  1.25330E+02  1.382E+00  5.000E+00  5.000E+03 -3.201E+01
   1    3    5     1     2    7.7122E+05 -5.6349E+04   8.2757E+05  0.000E+00  0.000E+00  0.000E+00  1.24303E+02  1.458E+00  5.000E+00  5.000E+03 -2.254E+01
   1    4    5     1     3    8.2757E+05 -5.3332E+04   8.8091E+05  0.000E+00  0.000E+00  0.000E+00  1.23258E+02  1.517E+00  5.000E+00  5.000E+03 -2.133E+01
   1    4    6     1     4    8.8091E+05 -4.3593E+04   9.2450E+05  0.000E+00  0.000E+00  0.000E+00  1.22206E+02  1.568E+00  5.000E+00  5.000E+03 -1.744E+01
   1    4    7     1     5    9.2450E+05 -2.1225E+04   9.4572E+05  0.000E+00  0.000E+00  0.000E+00  1.21412E+02  1.602E+00  5.000E+00  2.500E+03 -1.698E+01
   1    4    8     1     6    9.4572E+05 -3.4854E+04   9.8058E+05  0.000E+00  0.000E+00  0.000E+00  1.20751E+02  1.630E+00  5.000E+00  3.750E+03 -1.859E+01
   1    5    8     1     7    9.8058E+05 -3.6790E+04   1.0174E+06  0.000E+00  0.000E+00  0.000E+00  1.19822E+02  1.666E+00  5.000E+00  5.000E+03 -1.472E+01
   1    6    8     1     8    1.0174E+06 -2.5343E+04   1.0427E+06  0.000E+00  0.000E+00  0.000E+00  1.18749E+02  1.697E+00  5.000E+00  5.000E+03 -1.014E+01
   1   12    9     2     1    1.3465E+06 -2.7226E+04   1.3737E+06  0.000E+00  0.000E+00  0.000E+00  1.16631E+02  2.192E+00  5.000E+00  5.000E+03 -1.089E+01
   1   13    9     2     2    1.3737E+06 -4.2875E+04   1.4166E+06  0.000E+00  0.000E+00  0.000E+00  1.15844E+02  2.225E+00  5.000E+00  5.000E+03 -1.715E+01
   1   14   10     2     3    1.4166E+06 -2.3149E+04   1.4397E+06  0.000E+00  0.000E+00  0.000E+00  1.15236E+02  2.257E+00  5.000E+00  2.795E+03 -1.656E+01
   1   14   10     2     4    1.4397E+06 -2.4368E+04   1.4641E+06  0.000E+00  0.000E+00  0.000E+00  1.14800E+02  2.279E+00  5.000E+00  2.795E+03 -1.744E+01
   1   15   10     2     5    1.4641E+06 -4.0941E+04   1.5050E+06  0.000E+00  0.000E+00  0.000E+00  1.14191E+02  2.310E+00  5.000E+00  5.000E+03 -1.638E+01
   1   16   10     2     6    1.5050E+06 -2.7364E+04   1.5324E+06  0.000E+00  0.000E+00  0.000E+00  1.13402E+02  2.342E+00  5.000E+00  5.000E+03 -1.095E+01
   1   22   10     3     1    1.8620E+06 -2.7810E+04   1.8899E+06  0.000E+00  0.000E+00  0.000E+00  1.11503E+02  2.547E+00  5.000E+00  5.000E+03 -1.112E+01
   1   23   10     3     2    1.8899E+06 -4.0067E+04   1.9299E+06  0.000E+00  0.000E+00  0.000E+00  1.10703E+02  2.575E+00  5.000E+00  3.750E+03 -2.137E+01
   1   23   11     3     3    1.9299E+06 -2.3748E+04   1.9537E+06  0.000E+00  0.000E+00  0.000E+00  1.10137E+02  2.601E+00  5.000E+00  2.500E+03 -1.900E+01
   1   23   12     3     4    1.9537E+06 -4.7122E+04   2.0008E+06  0.000E+00  0.000E+00  0.000E+00  1.09456E+02  2.629E+00  5.000E+00  5.000E+03 -1.885E+01
   1   23   13     3     5    2.0008E+06 -5.0766E+04   2.0516E+06  0.000E+00  0.000E+00  0.000E+00  1.08549E+02  2.668E+00  5.000E+00  5.000E+03 -2.031E+01
   1   23   14     3     6    2.0516E+06 -5.4489E+04   2.1060E+06  0.000E+00  0.000E+00  0.000E+00  1.07645E+02  2.709E+00  5.000E+00  5.000E+03 -2.180E+01
   1   23   15     3     7    2.1060E+06 -6.1843E+04   2.1679E+06  0.000E+00  0.000E+00  0.000E+00  1.06744E+02  2.754E+00  5.000E+00  5.000E+03 -2.474E+01
   1   23   16     3     8    2.1679E+06 -9.0023E+04   2.2579E+06  0.000E+00  0.000E+00  0.000E+00  1.05857E+02  2.813E+00  5.000E+00  5.000E+03 -3.601E+01





     0  LAKE CELLS ARE DRY.

 PERIOD     1     TIME STEP   157     TIME STEP LENGTH  9.5408E+00
 PERIOD TIME  1.0413E+03     TOTAL SIMULATION TIME  1.0413E+03


                 HYDROLOGIC BUDGET SUMMARIES FOR SIMULATED LAKES
     (ALL FLUID FLUXES ARE VOLUMES ADDED TO THE LAKE DURING PRESENT TIME STEP)
     -------------------------------------------------------------------------
 LAKE    STAGE         VOLUME     VOL.CHANGE      PRECIP     EVAPORATION        RUNOFF
   1   117.0284     8.5177E+07    3.5200E+02    6.9171E+05    6.1419E+05    0.0000E+00
   2   111.9644     5.3527E+07    7.7200E+02    6.9171E+05    6.1419E+05    0.0000E+00

            GROUND WATER            SURFACE WATER        WATER
 LAKE    INFLOW     OUTFLOW      INFLOW     OUTFLOW       USE
   1  2.8207E+06  0.0000E+00  9.9483E+06  1.2846E+07  0.0000E+00
   2  3.0686E+06  0.0000E+00  1.4620E+07  1.7765E+07  0.0000E+00

      CONNECTED LAKE   TIME-STEP         STAGE-CHANGE          PERCENT
 LAKE    INFLUX      SURFACE AREA   TIME STEP  CUMULATIVE    DISCREPANCY
   1   0.0000E+00     6.2500E+06   5.5237E-05 -1.2972E+01       0.000
   2   0.0000E+00     6.2500E+06   1.2370E-04 -1.8036E+01       0.000
 --------------------------------------------------------------------------------



            CUMULATIVE HYDROLOGIC BUDGET SUMMARIES FOR SIMULATED LAKES
     (ALL FLUID FLUXES ARE SUMS OF VOLUMES ADDED TO THE LAKE SINCE INITIAL TIME)
     ---------------------------------------------------------------------------
 LAKE       PRECIP       EVAP       RUNOFF
   1     7.5493E+07  6.7033E+07  0.0000E+00
   2     7.5493E+07  6.7033E+07  0.0000E+00

            GROUND WATER            SURFACE WATER
 LAKE    INFLOW     OUTFLOW      INFLOW     OUTFLOW
   1  2.3206E+08  1.5644E+06  1.0193E+09  1.3393E+09
   2  2.6061E+08  1.4259E+06  1.4886E+09  1.8690E+09

         WATER    CONNECTED LAKE   CHANGE       PERCENT
 LAKE     USE         INFLUX       IN VOL.    DISCREPANCY
   1   0.0000E+00   0.0000E+00  -8.1072E+07      0.000
   2   0.0000E+00   0.0000E+00  -1.1272E+08      0.000
 --------------------------------------------------------------------------------

 
 SOLVING FOR HEAD 
     4 ITERATIONS FOR TIME STEP 158 IN STRESS PERIOD    1

 HEAD/DRAWDOWN PRINTOUT FLAG = 0     TOTAL BUDGET PRINTOUT FLAG = 0
 CELL-BY-CELL FLOW TERM FLAG = 1

 OUTPUT FLAGS FOR ALL LAYERS ARE THE SAME:
   HEAD    DRAWDOWN  HEAD  DRAWDOWN
 PRINTOUT  PRINTOUT  SAVE    SAVE
 ----------------------------------
     0         0       0       0



 STREAM LISTING     PERIOD      1   STEP      158

 LAYER ROW COL. STREAM  RCH.  FLOW INTO     FLOW TO   FLOW OUT OF   OVRLND.     DIRECT     STREAM       STREAM     STREAM     STREAM   STREAMBED  STREAMBED
                SEG.NO.  NO.  STRM. RCH.    AQUIFER    STRM. RCH.    RUNOFF     PRECIP       ET          HEAD       DEPTH      WIDTH   CONDCTNC.   GRADIENT

   1    2    5     1     1    6.9120E+05 -8.0025E+04   7.7123E+05  0.000E+00  0.000E+00  0.000E+00  1.25330E+02  1.382E+00  5.000E+00  5.000E+03 -3.201E+01
   1    3    5     1     2    7.7123E+05 -5.6350E+04   8.2758E+05  0.000E+00  0.000E+00  0.000E+00  1.24303E+02  1.458E+00  5.000E+00  5.000E+03 -2.254E+01
   1    4    5     1     3    8.2758E+05 -5.3334E+04   8.8091E+05  0.000E+00  0.000E+00  0.000E+00  1.23258E+02  1.517E+00  5.000E+00  5.000E+03 -2.133E+01
   1    4    6     1     4    8.8091E+05 -4.3595E+04   9.2450E+05  0.000E+00  0.000E+00  0.000E+00  1.22206E+02  1.568E+00  5.000E+00  5.000E+03 -1.744E+01
   1    4    7     1     5    9.2450E+05 -2.1226E+04   9.4573E+05  0.000E+00  0.000E+00  0.000E+00  1.21412E+02  1.602E+00  5.000E+00  2.500E+03 -1.698E+01
   1    4    8     1     6    9.4573E+05 -3.4856E+04   9.8059E+05  0.000E+00  0.000E+00  0.000E+00  1.20751E+02  1.630E+00  5.000E+00  3.750E+03 -1.859E+01
   1    5    8     1     7    9.8059E+05 -3.6793E+04   1.0174E+06  0.000E+00  0.000E+00  0.000E+00  1.19822E+02  1.666E+00  5.000E+00  5.000E+03 -1.472E+01
   1    6    8     1     8    1.0174E+06 -2.5345E+04   1.0427E+06  0.000E+00  0.000E+00  0.000E+00  1.18749E+02  1.697E+00  5.000E+00  5.000E+03 -1.014E+01
   1   12    9     2     1    1.3465E+06 -2.7231E+04   1.3737E+06  0.000E+00  0.000E+00  0.000E+00  1.16631E+02  2.192E+00  5.000E+00  5.000E+03 -1.089E+01
   1   13    9     2     2    1.3737E+06 -4.2884E+04   1.4166E+06  0.000E+00  0.000E+00  0.000E+00  1.15844E+02  2.225E+00  5.000E+00  5.000E+03 -1.715E+01
   1   14   10     2     3    1.4166E+06 -2.3154E+04   1.4398E+06  0.000E+00  0.000E+00  0.000E+00  1.15236E+02  2.257E+00  5.000E+00  2.795E+03 -1.657E+01
   1   14   10     2     4    1.4398E+06 -2.4373E+04   1.4641E+06  0.000E+00  0.000E+00  0.000E+00  1.14800E+02  2.279E+00  5.000E+00  2.795E+03 -1.744E+01
   1   15   10     2     5    1.4641E+06 -4.0950E+04   1.5051E+06  0.000E+00  0.000E+00  0.000E+00  1.14191E+02  2.310E+00  5.000E+00  5.000E+03 -1.638E+01
   1   16   10     2     6    1.5051E+06 -2.7369E+04   1.5325E+06  0.000E+00  0.000E+00  0.000E+00  1.13402E+02  2.342E+00  5.000E+00  5.000E+03 -1.095E+01
   1   22   10     3     1    1.8622E+06 -2.7812E+04   1.8900E+06  0.000E+00  0.000E+00  0.000E+00  1.11503E+02  2.547E+00  5.000E+00  5.000E+03 -1.112E+01
   1   23   10     3     2    1.8900E+06 -4.0069E+04   1.9301E+06  0.000E+00  0.000E+00  0.000E+00  1.10703E+02  2.575E+00  5.000E+00  3.750E+03 -2.137E+01
   1   23   11     3     3    1.9301E+06 -2.3750E+04   1.9538E+06  0.000E+00  0.000E+00  0.000E+00  1.10138E+02  2.601E+00  5.000E+00  2.500E+03 -1.900E+01
   1   23   12     3     4    1.9538E+06 -4.7125E+04   2.0009E+06  0.000E+00  0.000E+00  0.000E+00  1.09457E+02  2.629E+00  5.000E+00  5.000E+03 -1.885E+01
   1   23   13     3     5    2.0009E+06 -5.0769E+04   2.0517E+06  0.000E+00  0.000E+00  0.000E+00  1.08550E+02  2.668E+00  5.000E+00  5.000E+03 -2.031E+01
   1   23   14     3     6    2.0517E+06 -5.4491E+04   2.1062E+06  0.000E+00  0.000E+00  0.000E+00  1.07645E+02  2.709E+00  5.000E+00  5.000E+03 -2.180E+01
   1   23   15     3     7    2.1062E+06 -6.1844E+04   2.1680E+06  0.000E+00  0.000E+00  0.000E+00  1.06745E+02  2.754E+00  5.000E+00  5.000E+03 -2.474E+01
   1   23   16     3     8    2.1680E+06 -9.0023E+04   2.2581E+06  0.000E+00  0.000E+00  0.000E+00  1.05857E+02  2.813E+00  5.000E+00  5.000E+03 -3.601E+01





     0  LAKE CELLS ARE DRY.

 PERIOD     1     TIME STEP   158     TIME STEP LENGTH  9.5885E+00
 PERIOD TIME  1.0509E+03     TOTAL SIMULATION TIME  1.0509E+03


                 HYDROLOGIC BUDGET SUMMARIES FOR SIMULATED LAKES
     (ALL FLUID FLUXES ARE VOLUMES ADDED TO THE LAKE DURING PRESENT TIME STEP)
     -------------------------------------------------------------------------
 LAKE    STAGE         VOLUME     VOL.CHANGE      PRECIP     EVAPORATION        RUNOFF
   1   117.0284     8.5177E+07    3.2000E+02    6.9517E+05    6.1726E+05    0.0000E+00
   2   111.9646     5.3528E+07    7.2800E+02    6.9517E+05    6.1726E+05    0.0000E+00

            GROUND WATER            SURFACE WATER        WATER
 LAKE    INFLOW     OUTFLOW      INFLOW     OUTFLOW       USE
   1  2.8352E+06  0.0000E+00  9.9982E+06  1.2911E+07  0.0000E+00
   2  3.0844E+06  0.0000E+00  1.4694E+07  1.7856E+07  0.0000E+00

      CONNECTED LAKE   TIME-STEP         STAGE-CHANGE          PERCENT
 LAKE    INFLUX      SURFACE AREA   TIME STEP  CUMULATIVE    DISCREPANCY
   1   0.0000E+00     6.2500E+06   5.1342E-05 -1.2972E+01       0.000
   2   0.0000E+00     6.2500E+06   1.1621E-04 -1.8035E+01       0.000
 --------------------------------------------------------------------------------



            CUMULATIVE HYDROLOGIC BUDGET SUMMARIES FOR SIMULATED LAKES
     (ALL FLUID FLUXES ARE SUMS OF VOLUMES ADDED TO THE LAKE SINCE INITIAL TIME)
     ---------------------------------------------------------------------------
 LAKE       PRECIP       EVAP       RUNOFF
   1     7.6189E+07  6.7650E+07  0.0000E+00
   2     7.6189E+07  6.7650E+07  0.0000E+00

            GROUND WATER            SURFACE WATER
 LAKE    INFLOW     OUTFLOW      INFLOW     OUTFLOW
   1  2.3489E+08  1.5644E+06  1.0293E+09  1.3522E+09
   2  2.6369E+08  1.4259E+06  1.5033E+09  1.8868E+09

         WATER    CONNECTED LAKE   CHANGE       PERCENT
 LAKE     USE         INFLUX       IN VOL.    DISCREPANCY
   1   0.0000E+00   0.0000E+00  -8.1072E+07      0.000
   2   0.0000E+00   0.0000E+00  -1.1272E+08      0.000
 --------------------------------------------------------------------------------

 
 SOLVING FOR HEAD 
     4 ITERATIONS FOR TIME STEP 159 IN STRESS PERIOD    1

 HEAD/DRAWDOWN PRINTOUT FLAG = 0     TOTAL BUDGET PRINTOUT FLAG = 0
 CELL-BY-CELL FLOW TERM FLAG = 1

 OUTPUT FLAGS FOR ALL LAYERS ARE THE SAME:
   HEAD    DRAWDOWN  HEAD  DRAWDOWN
 PRINTOUT  PRINTOUT  SAVE    SAVE
 ----------------------------------
     0         0       0       0



 STREAM LISTING     PERIOD      1   STEP      159

 LAYER ROW COL. STREAM  RCH.  FLOW INTO     FLOW TO   FLOW OUT OF   OVRLND.     DIRECT     STREAM       STREAM     STREAM     STREAM   STREAMBED  STREAMBED
                SEG.NO.  NO.  STRM. RCH.    AQUIFER    STRM. RCH.    RUNOFF     PRECIP       ET          HEAD       DEPTH      WIDTH   CONDCTNC.   GRADIENT

   1    2    5     1     1    6.9120E+05 -8.0025E+04   7.7123E+05  0.000E+00  0.000E+00  0.000E+00  1.25330E+02  1.382E+00  5.000E+00  5.000E+03 -3.201E+01
   1    3    5     1     2    7.7123E+05 -5.6351E+04   8.2758E+05  0.000E+00  0.000E+00  0.000E+00  1.24303E+02  1.458E+00  5.000E+00  5.000E+03 -2.254E+01
   1    4    5     1     3    8.2758E+05 -5.3336E+04   8.8091E+05  0.000E+00  0.000E+00  0.000E+00  1.23258E+02  1.517E+00  5.000E+00  5.000E+03 -2.133E+01
   1    4    6     1     4    8.8091E+05 -4.3597E+04   9.2451E+05  0.000E+00  0.000E+00  0.000E+00  1.22206E+02  1.568E+00  5.000E+00  5.000E+03 -1.744E+01
   1    4    7     1     5    9.2451E+05 -2.1227E+04   9.4574E+05  0.000E+00  0.000E+00  0.000E+00  1.21412E+02  1.602E+00  5.000E+00  2.500E+03 -1.698E+01
   1    4    8     1     6    9.4574E+05 -3.4857E+04   9.8059E+05  0.000E+00  0.000E+00  0.000E+00  1.20751E+02  1.630E+00  5.000E+00  3.750E+03 -1.859E+01
   1    5    8     1     7    9.8059E+05 -3.6795E+04   1.0174E+06  0.000E+00  0.000E+00  0.000E+00  1.19822E+02  1.666E+00  5.000E+00  5.000E+03 -1.472E+01
   1    6    8     1     8    1.0174E+06 -2.5347E+04   1.0427E+06  0.000E+00  0.000E+00  0.000E+00  1.18749E+02  1.697E+00  5.000E+00  5.000E+03 -1.014E+01
   1   12    9     2     1    1.3466E+06 -2.7235E+04   1.3738E+06  0.000E+00  0.000E+00  0.000E+00  1.16631E+02  2.192E+00  5.000E+00  5.000E+03 -1.089E+01
   1   13    9     2     2    1.3738E+06 -4.2892E+04   1.4167E+06  0.000E+00  0.000E+00  0.000E+00  1.15845E+02  2.225E+00  5.000E+00  5.000E+03 -1.716E+01
   1   14   10     2     3    1.4167E+06 -2.3158E+04   1.4398E+06  0.000E+00  0.000E+00  0.000E+00  1.15236E+02  2.257E+00  5.000E+00  2.795E+03 -1.657E+01
   1   14   10     2     4    1.4398E+06 -2.4378E+04   1.4642E+06  0.000E+00  0.000E+00  0.000E+00  1.14800E+02  2.279E+00  5.000E+00  2.795E+03 -1.744E+01
   1   15   10     2     5    1.4642E+06 -4.0958E+04   1.5052E+06  0.000E+00  0.000E+00  0.000E+00  1.14191E+02  2.310E+00  5.000E+00  5.000E+03 -1.638E+01
   1   16   10     2     6    1.5052E+06 -2.7374E+04   1.5325E+06  0.000E+00  0.000E+00  0.000E+00  1.13402E+02  2.342E+00  5.000E+00  5.000E+03 -1.095E+01
   1   22   10     3     1    1.8623E+06 -2.7815E+04   1.8901E+06  0.000E+00  0.000E+00  0.000E+00  1.11503E+02  2.547E+00  5.000E+00  5.000E+03 -1.113E+01
   1   23   10     3     2    1.8901E+06 -4.0072E+04   1.9302E+06  0.000E+00  0.000E+00  0.000E+00  1.10703E+02  2.575E+00  5.000E+00  3.750E+03 -2.137E+01
   1   23   11     3     3    1.9302E+06 -2.3751E+04   1.9540E+06  0.000E+00  0.000E+00  0.000E+00  1.10138E+02  2.601E+00  5.000E+00  2.500E+03 -1.900E+01
   1   23   12     3     4    1.9540E+06 -4.7128E+04   2.0011E+06  0.000E+00  0.000E+00  0.000E+00  1.09457E+02  2.629E+00  5.000E+00  5.000E+03 -1.885E+01
   1   23   13     3     5    2.0011E+06 -5.0772E+04   2.0519E+06  0.000E+00  0.000E+00  0.000E+00  1.08550E+02  2.668E+00  5.000E+00  5.000E+03 -2.031E+01
   1   23   14     3     6    2.0519E+06 -5.4493E+04   2.1064E+06  0.000E+00  0.000E+00  0.000E+00  1.07645E+02  2.709E+00  5.000E+00  5.000E+03 -2.180E+01
   1   23   15     3     7    2.1064E+06 -6.1845E+04   2.1682E+06  0.000E+00  0.000E+00  0.000E+00  1.06745E+02  2.755E+00  5.000E+00  5.000E+03 -2.474E+01
   1   23   16     3     8    2.1682E+06 -9.0024E+04   2.2582E+06  0.000E+00  0.000E+00  0.000E+00  1.05857E+02  2.813E+00  5.000E+00  5.000E+03 -3.601E+01





     0  LAKE CELLS ARE DRY.

 PERIOD     1     TIME STEP   159     TIME STEP LENGTH  9.6365E+00
 PERIOD TIME  1.0605E+03     TOTAL SIMULATION TIME  1.0605E+03


                 HYDROLOGIC BUDGET SUMMARIES FOR SIMULATED LAKES
     (ALL FLUID FLUXES ARE VOLUMES ADDED TO THE LAKE DURING PRESENT TIME STEP)
     -------------------------------------------------------------------------
 LAKE    STAGE         VOLUME     VOL.CHANGE      PRECIP     EVAPORATION        RUNOFF
   1   117.0285     8.5177E+07    3.0400E+02    6.9864E+05    6.2035E+05    0.0000E+00
   2   111.9647     5.3528E+07    6.7600E+02    6.9864E+05    6.2035E+05    0.0000E+00

            GROUND WATER            SURFACE WATER        WATER
 LAKE    INFLOW     OUTFLOW      INFLOW     OUTFLOW       USE
   1  2.8497E+06  0.0000E+00  1.0048E+07  1.2976E+07  0.0000E+00
   2  3.1002E+06  0.0000E+00  1.4768E+07  1.7946E+07  0.0000E+00

      CONNECTED LAKE   TIME-STEP         STAGE-CHANGE          PERCENT
 LAKE    INFLUX      SURFACE AREA   TIME STEP  CUMULATIVE    DISCREPANCY
   1   0.0000E+00     6.2500E+06   4.9286E-05 -1.2972E+01       0.000
   2   0.0000E+00     6.2500E+06   1.0846E-04 -1.8035E+01       0.000
 --------------------------------------------------------------------------------



            CUMULATIVE HYDROLOGIC BUDGET SUMMARIES FOR SIMULATED LAKES
     (ALL FLUID FLUXES ARE SUMS OF VOLUMES ADDED TO THE LAKE SINCE INITIAL TIME)
     ---------------------------------------------------------------------------
 LAKE       PRECIP       EVAP       RUNOFF
   1     7.6887E+07  6.8271E+07  0.0000E+00
   2     7.6887E+07  6.8271E+07  0.0000E+00

            GROUND WATER            SURFACE WATER
 LAKE    INFLOW     OUTFLOW      INFLOW     OUTFLOW
   1  2.3774E+08  1.5644E+06  1.0394E+09  1.3652E+09
   2  2.6679E+08  1.4259E+06  1.5181E+09  1.9048E+09

         WATER    CONNECTED LAKE   CHANGE       PERCENT
 LAKE     USE         INFLUX       IN VOL.    DISCREPANCY
   1   0.0000E+00   0.0000E+00  -8.1071E+07      0.000
   2   0.0000E+00   0.0000E+00  -1.1272E+08      0.000
 --------------------------------------------------------------------------------

 
 SOLVING FOR HEAD 
     4 ITERATIONS FOR TIME STEP 160 IN STRESS PERIOD    1

 HEAD/DRAWDOWN PRINTOUT FLAG = 1     TOTAL BUDGET PRINTOUT FLAG = 1
 CELL-BY-CELL FLOW TERM FLAG = 1

 OUTPUT FLAGS FOR EACH LAYER:
          HEAD    DRAWDOWN  HEAD  DRAWDOWN
 LAYER  PRINTOUT  PRINTOUT  SAVE    SAVE
 -----------------------------------------
    1       0         0       0       0
    2       0         0       0       0
    3       0         0       0       0
    4       0         0       0       0
    5       1         0       0       0



 STREAM LISTING     PERIOD      1   STEP      160

 LAYER ROW COL. STREAM  RCH.  FLOW INTO     FLOW TO   FLOW OUT OF   OVRLND.     DIRECT     STREAM       STREAM     STREAM     STREAM   STREAMBED  STREAMBED
                SEG.NO.  NO.  STRM. RCH.    AQUIFER    STRM. RCH.    RUNOFF     PRECIP       ET          HEAD       DEPTH      WIDTH   CONDCTNC.   GRADIENT

   1    2    5     1     1    6.9120E+05 -8.0026E+04   7.7123E+05  0.000E+00  0.000E+00  0.000E+00  1.25330E+02  1.382E+00  5.000E+00  5.000E+03 -3.201E+01
   1    3    5     1     2    7.7123E+05 -5.6352E+04   8.2758E+05  0.000E+00  0.000E+00  0.000E+00  1.24303E+02  1.458E+00  5.000E+00  5.000E+03 -2.254E+01
   1    4    5     1     3    8.2758E+05 -5.3338E+04   8.8092E+05  0.000E+00  0.000E+00  0.000E+00  1.23258E+02  1.517E+00  5.000E+00  5.000E+03 -2.134E+01
   1    4    6     1     4    8.8092E+05 -4.3599E+04   9.2451E+05  0.000E+00  0.000E+00  0.000E+00  1.22206E+02  1.568E+00  5.000E+00  5.000E+03 -1.744E+01
   1    4    7     1     5    9.2451E+05 -2.1228E+04   9.4574E+05  0.000E+00  0.000E+00  0.000E+00  1.21412E+02  1.602E+00  5.000E+00  2.500E+03 -1.698E+01
   1    4    8     1     6    9.4574E+05 -3.4858E+04   9.8060E+05  0.000E+00  0.000E+00  0.000E+00  1.20751E+02  1.630E+00  5.000E+00  3.750E+03 -1.859E+01
   1    5    8     1     7    9.8060E+05 -3.6798E+04   1.0174E+06  0.000E+00  0.000E+00  0.000E+00  1.19822E+02  1.666E+00  5.000E+00  5.000E+03 -1.472E+01
   1    6    8     1     8    1.0174E+06 -2.5349E+04   1.0427E+06  0.000E+00  0.000E+00  0.000E+00  1.18749E+02  1.697E+00  5.000E+00  5.000E+03 -1.014E+01
   1   12    9     2     1    1.3466E+06 -2.7239E+04   1.3738E+06  0.000E+00  0.000E+00  0.000E+00  1.16631E+02  2.192E+00  5.000E+00  5.000E+03 -1.090E+01
   1   13    9     2     2    1.3738E+06 -4.2900E+04   1.4167E+06  0.000E+00  0.000E+00  0.000E+00  1.15845E+02  2.226E+00  5.000E+00  5.000E+03 -1.716E+01
   1   14   10     2     3    1.4167E+06 -2.3163E+04   1.4399E+06  0.000E+00  0.000E+00  0.000E+00  1.15236E+02  2.257E+00  5.000E+00  2.795E+03 -1.657E+01
   1   14   10     2     4    1.4399E+06 -2.4382E+04   1.4643E+06  0.000E+00  0.000E+00  0.000E+00  1.14800E+02  2.279E+00  5.000E+00  2.795E+03 -1.745E+01
   1   15   10     2     5    1.4643E+06 -4.0965E+04   1.5053E+06  0.000E+00  0.000E+00  0.000E+00  1.14191E+02  2.310E+00  5.000E+00  5.000E+03 -1.639E+01
   1   16   10     2     6    1.5053E+06 -2.7379E+04   1.5326E+06  0.000E+00  0.000E+00  0.000E+00  1.13402E+02  2.342E+00  5.000E+00  5.000E+03 -1.095E+01
   1   22   10     3     1    1.8624E+06 -2.7817E+04   1.8903E+06  0.000E+00  0.000E+00  0.000E+00  1.11503E+02  2.548E+00  5.000E+00  5.000E+03 -1.113E+01
   1   23   10     3     2    1.8903E+06 -4.0074E+04   1.9303E+06  0.000E+00  0.000E+00  0.000E+00  1.10703E+02  2.575E+00  5.000E+00  3.750E+03 -2.137E+01
   1   23   11     3     3    1.9303E+06 -2.3753E+04   1.9541E+06  0.000E+00  0.000E+00  0.000E+00  1.10138E+02  2.601E+00  5.000E+00  2.500E+03 -1.900E+01
   1   23   12     3     4    1.9541E+06 -4.7130E+04   2.0012E+06  0.000E+00  0.000E+00  0.000E+00  1.09457E+02  2.629E+00  5.000E+00  5.000E+03 -1.885E+01
   1   23   13     3     5    2.0012E+06 -5.0774E+04   2.0520E+06  0.000E+00  0.000E+00  0.000E+00  1.08550E+02  2.668E+00  5.000E+00  5.000E+03 -2.031E+01
   1   23   14     3     6    2.0520E+06 -5.4495E+04   2.1065E+06  0.000E+00  0.000E+00  0.000E+00  1.07645E+02  2.709E+00  5.000E+00  5.000E+03 -2.180E+01
   1   23   15     3     7    2.1065E+06 -6.1847E+04   2.1683E+06  0.000E+00  0.000E+00  0.000E+00  1.06745E+02  2.755E+00  5.000E+00  5.000E+03 -2.474E+01
   1   23   16     3     8    2.1683E+06 -9.0024E+04   2.2584E+06  0.000E+00  0.000E+00  0.000E+00  1.05857E+02  2.813E+00  5.000E+00  5.000E+03 -3.601E+01





     0  LAKE CELLS ARE DRY.

 PERIOD     1     TIME STEP   160     TIME STEP LENGTH  9.6846E+00
 PERIOD TIME  1.0702E+03     TOTAL SIMULATION TIME  1.0702E+03


                 HYDROLOGIC BUDGET SUMMARIES FOR SIMULATED LAKES
     (ALL FLUID FLUXES ARE VOLUMES ADDED TO THE LAKE DURING PRESENT TIME STEP)
     -------------------------------------------------------------------------
 LAKE    STAGE         VOLUME     VOL.CHANGE      PRECIP     EVAPORATION        RUNOFF
   1   117.0285     8.5177E+07    2.9600E+02    7.0214E+05    6.2345E+05    0.0000E+00
   2   111.9648     5.3529E+07    6.5200E+02    7.0214E+05    6.2345E+05    0.0000E+00

            GROUND WATER            SURFACE WATER        WATER
 LAKE    INFLOW     OUTFLOW      INFLOW     OUTFLOW       USE
   1  2.8643E+06  0.0000E+00  1.0099E+07  1.3041E+07  0.0000E+00
   2  3.1161E+06  0.0000E+00  1.4843E+07  1.8037E+07  0.0000E+00

      CONNECTED LAKE   TIME-STEP         STAGE-CHANGE          PERCENT
 LAKE    INFLUX      SURFACE AREA   TIME STEP  CUMULATIVE    DISCREPANCY
   1   0.0000E+00     6.2500E+06   4.6675E-05 -1.2971E+01       0.000
   2   0.0000E+00     6.2500E+06   1.0396E-04 -1.8035E+01       0.000
 --------------------------------------------------------------------------------



            CUMULATIVE HYDROLOGIC BUDGET SUMMARIES FOR SIMULATED LAKES
     (ALL FLUID FLUXES ARE SUMS OF VOLUMES ADDED TO THE LAKE SINCE INITIAL TIME)
     ---------------------------------------------------------------------------
 LAKE       PRECIP       EVAP       RUNOFF
   1     7.7589E+07  6.8894E+07  0.0000E+00
   2     7.7589E+07  6.8894E+07  0.0000E+00

            GROUND WATER            SURFACE WATER
 LAKE    INFLOW     OUTFLOW      INFLOW     OUTFLOW
   1  2.4061E+08  1.5644E+06  1.0495E+09  1.3783E+09
   2  2.6991E+08  1.4259E+06  1.5329E+09  1.9228E+09

         WATER    CONNECTED LAKE   CHANGE       PERCENT
 LAKE     USE         INFLUX       IN VOL.    DISCREPANCY
   1   0.0000E+00   0.0000E+00  -8.1071E+07      0.000
   2   0.0000E+00   0.0000E+00  -1.1272E+08      0.000
 --------------------------------------------------------------------------------

1
              HEAD IN LAYER   5 AT END OF TIME STEP 160 IN STRESS PERIOD    1
  ---------------------------------------------------------------------------

          1      2      3      4      5      6      7      8      9     10
 .........................................................................
   1   160.0  158.9  157.3  155.8  154.2  152.7  151.5  150.8  150.0  149.2
   2   160.0  158.2  155.3  151.1  141.4  146.7  147.2  147.2  146.9  146.6
   3   160.0  157.6  153.6  147.6  135.6  139.9  140.8  141.3  142.1  142.8
   4   160.0  157.3  153.0  146.7  133.9  130.9  129.9  130.1  135.4  138.2
   5   160.0  157.3  153.2  148.3  141.8  136.2  131.3  127.2  131.5  134.5
   6   160.0  157.4  153.6  149.2  143.7  136.2  128.4  123.8  126.1  128.1
   7   160.0  157.5  153.7  149.5  143.7  133.6  117.9  117.3  117.3  117.4
   8   160.0  157.5  153.8  149.6  143.7  132.8  117.5  117.1  117.0  117.1
   9   160.0  157.5  153.9  149.8  143.8  132.8  117.5  117.0  117.0  117.0
  10   160.0  157.6  154.0  149.9  144.1  133.3  117.6  117.1  117.0  117.1
  11   160.0  157.6  154.1  150.2  144.7  134.6  118.0  117.3  117.2  117.3
  12   160.0  157.6  154.2  150.6  145.8  138.7  130.8  126.5  122.1  125.0
  13   160.0  157.7  154.4  151.0  146.9  141.5  135.8  130.9  124.5  127.7
  14   160.0  157.7  154.5  151.2  147.3  142.4  137.5  133.6  128.9  123.6
  15   160.0  157.7  154.4  151.0  146.8  141.4  136.1  132.2  127.8  122.4
  16   160.0  157.6  154.2  150.5  145.5  137.8  129.5  125.5  122.2  118.9
  17   160.0  157.6  154.1  150.1  144.2  132.7  113.1  112.4  112.3  112.2
  18   160.0  157.6  154.1  149.9  143.7  131.1  112.6  112.0  112.0  112.0
  19   160.0  157.6  154.1  149.9  143.5  130.7  112.6  112.0  112.0  112.0
  20   160.0  157.6  154.1  150.0  143.8  131.3  112.6  112.0  112.0  112.0
  21   160.0  157.7  154.2  150.3  144.5  133.1  113.2  112.4  112.3  112.2
  22   160.0  157.7  154.5  150.9  146.1  138.7  130.3  126.1  122.1  117.1
  23   160.0  157.9  154.9  151.9  148.3  143.5  138.8  135.0  129.8  121.4
  24   160.0  158.0  155.4  152.8  150.0  146.8  143.9  141.8  139.5  137.3
  25   160.0  158.2  155.9  153.7  151.5  149.1  147.2  145.9  144.6  143.3
  26   160.0  158.5  156.6  154.8  153.0  151.2  149.8  148.8  147.9  147.0
  27   160.0  158.9  157.3  155.8  154.2  152.7  151.5  150.8  150.0  149.2
1
              HEAD IN LAYER   5 AT END OF TIME STEP 160 IN STRESS PERIOD    1
  ---------------------------------------------------------------------------

         11     12     13     14     15     16     17
 ....................................................
   1   148.5  147.3  145.8  144.2  142.7  141.1  140.0
   2   146.3  145.6  144.4  143.1  141.8  140.5  140.0
   3   143.1  143.3  142.8  141.9  141.0  140.1  140.0
   4   139.8  141.1  141.4  141.1  140.4  139.9  140.0
   5   136.5  138.7  140.0  140.3  140.0  139.8  140.0
   6   130.4  135.2  138.4  139.5  139.7  139.7  140.0
   7   117.9  131.2  137.2  139.0  139.5  139.6  140.0
   8   117.5  129.9  136.6  138.8  139.4  139.6  140.0
   9   117.4  129.5  136.3  138.6  139.3  139.5  140.0
  10   117.4  129.6  136.3  138.6  139.3  139.5  140.0
  11   117.8  130.5  136.6  138.7  139.3  139.5  140.0
  12   127.9  133.4  137.3  138.8  139.3  139.5  140.0
  13   131.0  135.0  137.8  139.0  139.3  139.5  140.0
  14   129.2  134.6  137.7  138.9  139.3  139.5  140.0
  15   127.7  133.5  137.1  138.6  139.1  139.4  140.0
  16   123.5  130.8  135.8  137.9  138.7  139.3  140.0
  17   112.8  127.1  134.5  137.2  138.3  139.1  140.0
  18   112.4  125.6  133.7  136.6  137.9  138.9  140.0
  19   112.4  124.8  132.9  135.8  137.2  138.6  140.0
  20   112.4  124.3  132.0  134.8  136.3  138.1  140.0
  21   112.6  124.0  130.8  133.4  134.9  137.2  140.0
  22   119.7  124.1  128.0  129.9  131.5  134.8  140.0
  23   119.7  118.9  118.7  118.6  119.1  123.9  140.0
  24   135.7  134.1  132.9  132.2  132.5  135.2  140.0
  25   142.2  140.8  139.3  138.3  137.8  138.5  140.0
  26   146.1  144.9  143.4  142.0  140.9  140.1  140.0
  27   148.5  147.3  145.8  144.2  142.7  141.1  140.0
1
  VOLUMETRIC BUDGET FOR ENTIRE MODEL AT END OF TIME STEP160 IN STRESS PERIOD   1
  ------------------------------------------------------------------------------

     CUMULATIVE VOLUMES      L**3       RATES FOR THIS TIME STEP      L**3/T
     ------------------                 ------------------------

           IN:                                      IN:
           ---                                      ---
             STORAGE =     2934567.7500               STORAGE =           0.0000
       CONSTANT HEAD =  1075100928.0000         CONSTANT HEAD =      541348.3750
                  ET =           0.0000                    ET =           0.0000
            RECHARGE =  2948397056.0000              RECHARGE =     2755000.0000
     SPECIFIED FLOWS =           0.0000       SPECIFIED FLOWS =           0.0000
      STREAM LEAKAGE =     3694574.2500        STREAM LEAKAGE =           0.0000
       LAKE  SEEPAGE =     2990331.7500         LAKE  SEEPAGE =           0.0000

            TOTAL IN =  4033117440.0000              TOTAL IN =     3296348.5000

          OUT:                                     OUT:
          ----                                     ----
             STORAGE =  1271157760.0000               STORAGE =        5879.8462
       CONSTANT HEAD =     1769401.2500         CONSTANT HEAD =        2764.0530
                  ET =  1401832704.0000                    ET =     1736712.3750
            RECHARGE =           0.0000              RECHARGE =           0.0000
     SPECIFIED FLOWS =           0.0000       SPECIFIED FLOWS =           0.0000
      STREAM LEAKAGE =   847833408.0000        STREAM LEAKAGE =      933488.7500
       LAKE  SEEPAGE =   510516192.0000         LAKE  SEEPAGE =      617521.3750

           TOTAL OUT =  4033109504.0000             TOTAL OUT =     3296366.5000

            IN - OUT =        7936.0000              IN - OUT =         -18.0000

 PERCENT DISCREPANCY =           0.00     PERCENT DISCREPANCY =           0.00






          TIME SUMMARY AT END OF TIME STEP 160 IN STRESS PERIOD    1
                    SECONDS     MINUTES      HOURS       DAYS        YEARS
                    -----------------------------------------------------------
   TIME STEP LENGTH 8.36753E+05  13946.      232.43      9.6846     2.65151E-02
 STRESS PERIOD TIME 9.24651E+07 1.54109E+06  25685.      1070.2      2.9300    
         TOTAL TIME 9.24651E+07 1.54109E+06  25685.      1070.2      2.9300    
1
 
 SOLVING FOR HEAD 
     4 ITERATIONS FOR TIME STEP 161 IN STRESS PERIOD    1

 HEAD/DRAWDOWN PRINTOUT FLAG = 0     TOTAL BUDGET PRINTOUT FLAG = 0
 CELL-BY-CELL FLOW TERM FLAG = 1

 OUTPUT FLAGS FOR ALL LAYERS ARE THE SAME:
   HEAD    DRAWDOWN  HEAD  DRAWDOWN
 PRINTOUT  PRINTOUT  SAVE    SAVE
 ----------------------------------
     0         0       0       0



 STREAM LISTING     PERIOD      1   STEP      161

 LAYER ROW COL. STREAM  RCH.  FLOW INTO     FLOW TO   FLOW OUT OF   OVRLND.     DIRECT     STREAM       STREAM     STREAM     STREAM   STREAMBED  STREAMBED
                SEG.NO.  NO.  STRM. RCH.    AQUIFER    STRM. RCH.    RUNOFF     PRECIP       ET          HEAD       DEPTH      WIDTH   CONDCTNC.   GRADIENT

   1    2    5     1     1    6.9120E+05 -8.0026E+04   7.7123E+05  0.000E+00  0.000E+00  0.000E+00  1.25330E+02  1.382E+00  5.000E+00  5.000E+03 -3.201E+01
   1    3    5     1     2    7.7123E+05 -5.6353E+04   8.2758E+05  0.000E+00  0.000E+00  0.000E+00  1.24303E+02  1.458E+00  5.000E+00  5.000E+03 -2.254E+01
   1    4    5     1     3    8.2758E+05 -5.3340E+04   8.8092E+05  0.000E+00  0.000E+00  0.000E+00  1.23258E+02  1.517E+00  5.000E+00  5.000E+03 -2.134E+01
   1    4    6     1     4    8.8092E+05 -4.3600E+04   9.2452E+05  0.000E+00  0.000E+00  0.000E+00  1.22206E+02  1.568E+00  5.000E+00  5.000E+03 -1.744E+01
   1    4    7     1     5    9.2452E+05 -2.1228E+04   9.4575E+05  0.000E+00  0.000E+00  0.000E+00  1.21412E+02  1.602E+00  5.000E+00  2.500E+03 -1.698E+01
   1    4    8     1     6    9.4575E+05 -3.4860E+04   9.8061E+05  0.000E+00  0.000E+00  0.000E+00  1.20751E+02  1.630E+00  5.000E+00  3.750E+03 -1.859E+01
   1    5    8     1     7    9.8061E+05 -3.6800E+04   1.0174E+06  0.000E+00  0.000E+00  0.000E+00  1.19822E+02  1.666E+00  5.000E+00  5.000E+03 -1.472E+01
   1    6    8     1     8    1.0174E+06 -2.5351E+04   1.0428E+06  0.000E+00  0.000E+00  0.000E+00  1.18749E+02  1.697E+00  5.000E+00  5.000E+03 -1.014E+01
   1   12    9     2     1    1.3466E+06 -2.7243E+04   1.3739E+06  0.000E+00  0.000E+00  0.000E+00  1.16632E+02  2.192E+00  5.000E+00  5.000E+03 -1.090E+01
   1   13    9     2     2    1.3739E+06 -4.2907E+04   1.4168E+06  0.000E+00  0.000E+00  0.000E+00  1.15845E+02  2.226E+00  5.000E+00  5.000E+03 -1.716E+01
   1   14   10     2     3    1.4168E+06 -2.3167E+04   1.4400E+06  0.000E+00  0.000E+00  0.000E+00  1.15236E+02  2.257E+00  5.000E+00  2.795E+03 -1.658E+01
   1   14   10     2     4    1.4400E+06 -2.4386E+04   1.4644E+06  0.000E+00  0.000E+00  0.000E+00  1.14800E+02  2.280E+00  5.000E+00  2.795E+03 -1.745E+01
   1   15   10     2     5    1.4644E+06 -4.0972E+04   1.5053E+06  0.000E+00  0.000E+00  0.000E+00  1.14191E+02  2.310E+00  5.000E+00  5.000E+03 -1.639E+01
   1   16   10     2     6    1.5053E+06 -2.7383E+04   1.5327E+06  0.000E+00  0.000E+00  0.000E+00  1.13402E+02  2.342E+00  5.000E+00  5.000E+03 -1.095E+01
   1   22   10     3     1    1.8626E+06 -2.7819E+04   1.8904E+06  0.000E+00  0.000E+00  0.000E+00  1.11503E+02  2.548E+00  5.000E+00  5.000E+03 -1.113E+01
   1   23   10     3     2    1.8904E+06 -4.0077E+04   1.9305E+06  0.000E+00  0.000E+00  0.000E+00  1.10703E+02  2.575E+00  5.000E+00  3.750E+03 -2.137E+01
   1   23   11     3     3    1.9305E+06 -2.3754E+04   1.9542E+06  0.000E+00  0.000E+00  0.000E+00  1.10138E+02  2.601E+00  5.000E+00  2.500E+03 -1.900E+01
   1   23   12     3     4    1.9542E+06 -4.7133E+04   2.0014E+06  0.000E+00  0.000E+00  0.000E+00  1.09457E+02  2.629E+00  5.000E+00  5.000E+03 -1.885E+01
   1   23   13     3     5    2.0014E+06 -5.0776E+04   2.0521E+06  0.000E+00  0.000E+00  0.000E+00  1.08550E+02  2.668E+00  5.000E+00  5.000E+03 -2.031E+01
   1   23   14     3     6    2.0521E+06 -5.4497E+04   2.1066E+06  0.000E+00  0.000E+00  0.000E+00  1.07645E+02  2.710E+00  5.000E+00  5.000E+03 -2.180E+01
   1   23   15     3     7    2.1066E+06 -6.1848E+04   2.1685E+06  0.000E+00  0.000E+00  0.000E+00  1.06745E+02  2.755E+00  5.000E+00  5.000E+03 -2.474E+01
   1   23   16     3     8    2.1685E+06 -9.0024E+04   2.2585E+06  0.000E+00  0.000E+00  0.000E+00  1.05857E+02  2.813E+00  5.000E+00  5.000E+03 -3.601E+01





     0  LAKE CELLS ARE DRY.

 PERIOD     1     TIME STEP   161     TIME STEP LENGTH  9.7331E+00
 PERIOD TIME  1.0799E+03     TOTAL SIMULATION TIME  1.0799E+03


                 HYDROLOGIC BUDGET SUMMARIES FOR SIMULATED LAKES
     (ALL FLUID FLUXES ARE VOLUMES ADDED TO THE LAKE DURING PRESENT TIME STEP)
     -------------------------------------------------------------------------
 LAKE    STAGE         VOLUME     VOL.CHANGE      PRECIP     EVAPORATION        RUNOFF
   1   117.0286     8.5178E+07    2.7200E+02    7.0565E+05    6.2657E+05    0.0000E+00
   2   111.9649     5.3530E+07    6.0400E+02    7.0565E+05    6.2657E+05    0.0000E+00

            GROUND WATER            SURFACE WATER        WATER
 LAKE    INFLOW     OUTFLOW      INFLOW     OUTFLOW       USE
   1  2.8790E+06  0.0000E+00  1.0149E+07  1.3107E+07  0.0000E+00
   2  3.1321E+06  0.0000E+00  1.4918E+07  1.8129E+07  0.0000E+00

      CONNECTED LAKE   TIME-STEP         STAGE-CHANGE          PERCENT
 LAKE    INFLUX      SURFACE AREA   TIME STEP  CUMULATIVE    DISCREPANCY
   1   0.0000E+00     6.2500E+06   4.4184E-05 -1.2971E+01       0.000
   2   0.0000E+00     6.2500E+06   9.7232E-05 -1.8035E+01       0.000
 --------------------------------------------------------------------------------



            CUMULATIVE HYDROLOGIC BUDGET SUMMARIES FOR SIMULATED LAKES
     (ALL FLUID FLUXES ARE SUMS OF VOLUMES ADDED TO THE LAKE SINCE INITIAL TIME)
     ---------------------------------------------------------------------------
 LAKE       PRECIP       EVAP       RUNOFF
   1     7.8295E+07  6.9521E+07  0.0000E+00
   2     7.8295E+07  6.9521E+07  0.0000E+00

            GROUND WATER            SURFACE WATER
 LAKE    INFLOW     OUTFLOW      INFLOW     OUTFLOW
   1  2.4348E+08  1.5644E+06  1.0596E+09  1.3914E+09
   2  2.7304E+08  1.4259E+06  1.5478E+09  1.9410E+09

         WATER    CONNECTED LAKE   CHANGE       PERCENT
 LAKE     USE         INFLUX       IN VOL.    DISCREPANCY
   1   0.0000E+00   0.0000E+00  -8.1071E+07      0.000
   2   0.0000E+00   0.0000E+00  -1.1272E+08      0.000
 --------------------------------------------------------------------------------

 
 SOLVING FOR HEAD 
     4 ITERATIONS FOR TIME STEP 162 IN STRESS PERIOD    1

 HEAD/DRAWDOWN PRINTOUT FLAG = 0     TOTAL BUDGET PRINTOUT FLAG = 0
 CELL-BY-CELL FLOW TERM FLAG = 1

 OUTPUT FLAGS FOR ALL LAYERS ARE THE SAME:
   HEAD    DRAWDOWN  HEAD  DRAWDOWN
 PRINTOUT  PRINTOUT  SAVE    SAVE
 ----------------------------------
     0         0       0       0



 STREAM LISTING     PERIOD      1   STEP      162

 LAYER ROW COL. STREAM  RCH.  FLOW INTO     FLOW TO   FLOW OUT OF   OVRLND.     DIRECT     STREAM       STREAM     STREAM     STREAM   STREAMBED  STREAMBED
                SEG.NO.  NO.  STRM. RCH.    AQUIFER    STRM. RCH.    RUNOFF     PRECIP       ET          HEAD       DEPTH      WIDTH   CONDCTNC.   GRADIENT

   1    2    5     1     1    6.9120E+05 -8.0026E+04   7.7123E+05  0.000E+00  0.000E+00  0.000E+00  1.25330E+02  1.382E+00  5.000E+00  5.000E+03 -3.201E+01
   1    3    5     1     2    7.7123E+05 -5.6354E+04   8.2758E+05  0.000E+00  0.000E+00  0.000E+00  1.24303E+02  1.458E+00  5.000E+00  5.000E+03 -2.254E+01
   1    4    5     1     3    8.2758E+05 -5.3342E+04   8.8092E+05  0.000E+00  0.000E+00  0.000E+00  1.23258E+02  1.517E+00  5.000E+00  5.000E+03 -2.134E+01
   1    4    6     1     4    8.8092E+05 -4.3602E+04   9.2452E+05  0.000E+00  0.000E+00  0.000E+00  1.22206E+02  1.568E+00  5.000E+00  5.000E+03 -1.744E+01
   1    4    7     1     5    9.2452E+05 -2.1229E+04   9.4575E+05  0.000E+00  0.000E+00  0.000E+00  1.21412E+02  1.602E+00  5.000E+00  2.500E+03 -1.698E+01
   1    4    8     1     6    9.4575E+05 -3.4861E+04   9.8061E+05  0.000E+00  0.000E+00  0.000E+00  1.20751E+02  1.630E+00  5.000E+00  3.750E+03 -1.859E+01
   1    5    8     1     7    9.8061E+05 -3.6802E+04   1.0174E+06  0.000E+00  0.000E+00  0.000E+00  1.19822E+02  1.666E+00  5.000E+00  5.000E+03 -1.472E+01
   1    6    8     1     8    1.0174E+06 -2.5353E+04   1.0428E+06  0.000E+00  0.000E+00  0.000E+00  1.18749E+02  1.697E+00  5.000E+00  5.000E+03 -1.014E+01
   1   12    9     2     1    1.3467E+06 -2.7247E+04   1.3739E+06  0.000E+00  0.000E+00  0.000E+00  1.16632E+02  2.192E+00  5.000E+00  5.000E+03 -1.090E+01
   1   13    9     2     2    1.3739E+06 -4.2914E+04   1.4169E+06  0.000E+00  0.000E+00  0.000E+00  1.15845E+02  2.226E+00  5.000E+00  5.000E+03 -1.717E+01
   1   14   10     2     3    1.4169E+06 -2.3170E+04   1.4400E+06  0.000E+00  0.000E+00  0.000E+00  1.15236E+02  2.257E+00  5.000E+00  2.795E+03 -1.658E+01
   1   14   10     2     4    1.4400E+06 -2.4390E+04   1.4644E+06  0.000E+00  0.000E+00  0.000E+00  1.14800E+02  2.280E+00  5.000E+00  2.795E+03 -1.745E+01
   1   15   10     2     5    1.4644E+06 -4.0979E+04   1.5054E+06  0.000E+00  0.000E+00  0.000E+00  1.14191E+02  2.310E+00  5.000E+00  5.000E+03 -1.639E+01
   1   16   10     2     6    1.5054E+06 -2.7387E+04   1.5328E+06  0.000E+00  0.000E+00  0.000E+00  1.13402E+02  2.342E+00  5.000E+00  5.000E+03 -1.095E+01
   1   22   10     3     1    1.8627E+06 -2.7821E+04   1.8905E+06  0.000E+00  0.000E+00  0.000E+00  1.11503E+02  2.548E+00  5.000E+00  5.000E+03 -1.113E+01
   1   23   10     3     2    1.8905E+06 -4.0079E+04   1.9306E+06  0.000E+00  0.000E+00  0.000E+00  1.10703E+02  2.575E+00  5.000E+00  3.750E+03 -2.138E+01
   1   23   11     3     3    1.9306E+06 -2.3755E+04   1.9543E+06  0.000E+00  0.000E+00  0.000E+00  1.10138E+02  2.601E+00  5.000E+00  2.500E+03 -1.900E+01
   1   23   12     3     4    1.9543E+06 -4.7135E+04   2.0015E+06  0.000E+00  0.000E+00  0.000E+00  1.09457E+02  2.629E+00  5.000E+00  5.000E+03 -1.885E+01
   1   23   13     3     5    2.0015E+06 -5.0778E+04   2.0522E+06  0.000E+00  0.000E+00  0.000E+00  1.08550E+02  2.668E+00  5.000E+00  5.000E+03 -2.031E+01
   1   23   14     3     6    2.0522E+06 -5.4499E+04   2.1067E+06  0.000E+00  0.000E+00  0.000E+00  1.07646E+02  2.710E+00  5.000E+00  5.000E+03 -2.180E+01
   1   23   15     3     7    2.1067E+06 -6.1849E+04   2.1686E+06  0.000E+00  0.000E+00  0.000E+00  1.06745E+02  2.755E+00  5.000E+00  5.000E+03 -2.474E+01
   1   23   16     3     8    2.1686E+06 -9.0025E+04   2.2586E+06  0.000E+00  0.000E+00  0.000E+00  1.05857E+02  2.813E+00  5.000E+00  5.000E+03 -3.601E+01





     0  LAKE CELLS ARE DRY.

 PERIOD     1     TIME STEP   162     TIME STEP LENGTH  9.7817E+00
 PERIOD TIME  1.0897E+03     TOTAL SIMULATION TIME  1.0897E+03


                 HYDROLOGIC BUDGET SUMMARIES FOR SIMULATED LAKES
     (ALL FLUID FLUXES ARE VOLUMES ADDED TO THE LAKE DURING PRESENT TIME STEP)
     -------------------------------------------------------------------------
 LAKE    STAGE         VOLUME     VOL.CHANGE      PRECIP     EVAPORATION        RUNOFF
   1   117.0286     8.5178E+07    2.5600E+02    7.0918E+05    6.2970E+05    0.0000E+00
   2   111.9650     5.3530E+07    5.7200E+02    7.0918E+05    6.2970E+05    0.0000E+00

            GROUND WATER            SURFACE WATER        WATER
 LAKE    INFLOW     OUTFLOW      INFLOW     OUTFLOW       USE
   1  2.8937E+06  0.0000E+00  1.0200E+07  1.3173E+07  0.0000E+00
   2  3.1481E+06  0.0000E+00  1.4993E+07  1.8220E+07  0.0000E+00

      CONNECTED LAKE   TIME-STEP         STAGE-CHANGE          PERCENT
 LAKE    INFLUX      SURFACE AREA   TIME STEP  CUMULATIVE    DISCREPANCY
   1   0.0000E+00     6.2500E+06   4.1030E-05 -1.2971E+01       0.000
   2   0.0000E+00     6.2500E+06   9.0920E-05 -1.8035E+01       0.000
 --------------------------------------------------------------------------------



            CUMULATIVE HYDROLOGIC BUDGET SUMMARIES FOR SIMULATED LAKES
     (ALL FLUID FLUXES ARE SUMS OF VOLUMES ADDED TO THE LAKE SINCE INITIAL TIME)
     ---------------------------------------------------------------------------
 LAKE       PRECIP       EVAP       RUNOFF
   1     7.9004E+07  7.0150E+07  0.0000E+00
   2     7.9004E+07  7.0150E+07  0.0000E+00

            GROUND WATER            SURFACE WATER
 LAKE    INFLOW     OUTFLOW      INFLOW     OUTFLOW
   1  2.4638E+08  1.5644E+06  1.0698E+09  1.4045E+09
   2  2.7619E+08  1.4259E+06  1.5628E+09  1.9592E+09

         WATER    CONNECTED LAKE   CHANGE       PERCENT
 LAKE     USE         INFLUX       IN VOL.    DISCREPANCY
   1   0.0000E+00   0.0000E+00  -8.1070E+07      0.000
   2   0.0000E+00   0.0000E+00  -1.1272E+08      0.000
 --------------------------------------------------------------------------------

 
 SOLVING FOR HEAD 
     4 ITERATIONS FOR TIME STEP 163 IN STRESS PERIOD    1

 HEAD/DRAWDOWN PRINTOUT FLAG = 0     TOTAL BUDGET PRINTOUT FLAG = 0
 CELL-BY-CELL FLOW TERM FLAG = 1

 OUTPUT FLAGS FOR ALL LAYERS ARE THE SAME:
   HEAD    DRAWDOWN  HEAD  DRAWDOWN
 PRINTOUT  PRINTOUT  SAVE    SAVE
 ----------------------------------
     0         0       0       0



 STREAM LISTING     PERIOD      1   STEP      163

 LAYER ROW COL. STREAM  RCH.  FLOW INTO     FLOW TO   FLOW OUT OF   OVRLND.     DIRECT     STREAM       STREAM     STREAM     STREAM   STREAMBED  STREAMBED
                SEG.NO.  NO.  STRM. RCH.    AQUIFER    STRM. RCH.    RUNOFF     PRECIP       ET          HEAD       DEPTH      WIDTH   CONDCTNC.   GRADIENT

   1    2    5     1     1    6.9120E+05 -8.0026E+04   7.7123E+05  0.000E+00  0.000E+00  0.000E+00  1.25330E+02  1.382E+00  5.000E+00  5.000E+03 -3.201E+01
   1    3    5     1     2    7.7123E+05 -5.6354E+04   8.2758E+05  0.000E+00  0.000E+00  0.000E+00  1.24303E+02  1.458E+00  5.000E+00  5.000E+03 -2.254E+01
   1    4    5     1     3    8.2758E+05 -5.3343E+04   8.8092E+05  0.000E+00  0.000E+00  0.000E+00  1.23258E+02  1.517E+00  5.000E+00  5.000E+03 -2.134E+01
   1    4    6     1     4    8.8092E+05 -4.3603E+04   9.2453E+05  0.000E+00  0.000E+00  0.000E+00  1.22206E+02  1.568E+00  5.000E+00  5.000E+03 -1.744E+01
   1    4    7     1     5    9.2453E+05 -2.1230E+04   9.4576E+05  0.000E+00  0.000E+00  0.000E+00  1.21412E+02  1.602E+00  5.000E+00  2.500E+03 -1.698E+01
   1    4    8     1     6    9.4576E+05 -3.4862E+04   9.8062E+05  0.000E+00  0.000E+00  0.000E+00  1.20751E+02  1.630E+00  5.000E+00  3.750E+03 -1.859E+01
   1    5    8     1     7    9.8062E+05 -3.6803E+04   1.0174E+06  0.000E+00  0.000E+00  0.000E+00  1.19822E+02  1.666E+00  5.000E+00  5.000E+03 -1.472E+01
   1    6    8     1     8    1.0174E+06 -2.5354E+04   1.0428E+06  0.000E+00  0.000E+00  0.000E+00  1.18749E+02  1.697E+00  5.000E+00  5.000E+03 -1.014E+01
   1   12    9     2     1    1.3467E+06 -2.7250E+04   1.3740E+06  0.000E+00  0.000E+00  0.000E+00  1.16632E+02  2.192E+00  5.000E+00  5.000E+03 -1.090E+01
   1   13    9     2     2    1.3740E+06 -4.2920E+04   1.4169E+06  0.000E+00  0.000E+00  0.000E+00  1.15845E+02  2.226E+00  5.000E+00  5.000E+03 -1.717E+01
   1   14   10     2     3    1.4169E+06 -2.3174E+04   1.4401E+06  0.000E+00  0.000E+00  0.000E+00  1.15237E+02  2.257E+00  5.000E+00  2.795E+03 -1.658E+01
   1   14   10     2     4    1.4401E+06 -2.4393E+04   1.4645E+06  0.000E+00  0.000E+00  0.000E+00  1.14800E+02  2.280E+00  5.000E+00  2.795E+03 -1.745E+01
   1   15   10     2     5    1.4645E+06 -4.0985E+04   1.5055E+06  0.000E+00  0.000E+00  0.000E+00  1.14191E+02  2.310E+00  5.000E+00  5.000E+03 -1.639E+01
   1   16   10     2     6    1.5055E+06 -2.7391E+04   1.5328E+06  0.000E+00  0.000E+00  0.000E+00  1.13402E+02  2.342E+00  5.000E+00  5.000E+03 -1.096E+01
   1   22   10     3     1    1.8628E+06 -2.7823E+04   1.8906E+06  0.000E+00  0.000E+00  0.000E+00  1.11504E+02  2.548E+00  5.000E+00  5.000E+03 -1.113E+01
   1   23   10     3     2    1.8906E+06 -4.0080E+04   1.9307E+06  0.000E+00  0.000E+00  0.000E+00  1.10703E+02  2.575E+00  5.000E+00  3.750E+03 -2.138E+01
   1   23   11     3     3    1.9307E+06 -2.3756E+04   1.9544E+06  0.000E+00  0.000E+00  0.000E+00  1.10138E+02  2.601E+00  5.000E+00  2.500E+03 -1.900E+01
   1   23   12     3     4    1.9544E+06 -4.7137E+04   2.0016E+06  0.000E+00  0.000E+00  0.000E+00  1.09457E+02  2.630E+00  5.000E+00  5.000E+03 -1.885E+01
   1   23   13     3     5    2.0016E+06 -5.0780E+04   2.0524E+06  0.000E+00  0.000E+00  0.000E+00  1.08550E+02  2.668E+00  5.000E+00  5.000E+03 -2.031E+01
   1   23   14     3     6    2.0524E+06 -5.4500E+04   2.1069E+06  0.000E+00  0.000E+00  0.000E+00  1.07646E+02  2.710E+00  5.000E+00  5.000E+03 -2.180E+01
   1   23   15     3     7    2.1069E+06 -6.1850E+04   2.1687E+06  0.000E+00  0.000E+00  0.000E+00  1.06745E+02  2.755E+00  5.000E+00  5.000E+03 -2.474E+01
   1   23   16     3     8    2.1687E+06 -9.0025E+04   2.2587E+06  0.000E+00  0.000E+00  0.000E+00  1.05858E+02  2.813E+00  5.000E+00  5.000E+03 -3.601E+01





     0  LAKE CELLS ARE DRY.

 PERIOD     1     TIME STEP   163     TIME STEP LENGTH  9.8306E+00
 PERIOD TIME  1.0995E+03     TOTAL SIMULATION TIME  1.0995E+03


                 HYDROLOGIC BUDGET SUMMARIES FOR SIMULATED LAKES
     (ALL FLUID FLUXES ARE VOLUMES ADDED TO THE LAKE DURING PRESENT TIME STEP)
     -------------------------------------------------------------------------
 LAKE    STAGE         VOLUME     VOL.CHANGE      PRECIP     EVAPORATION        RUNOFF
   1   117.0286     8.5178E+07    2.4800E+02    7.1272E+05    6.3285E+05    0.0000E+00
   2   111.9651     5.3531E+07    5.3200E+02    7.1272E+05    6.3285E+05    0.0000E+00

            GROUND WATER            SURFACE WATER        WATER
 LAKE    INFLOW     OUTFLOW      INFLOW     OUTFLOW       USE
   1  2.9084E+06  0.0000E+00  1.0251E+07  1.3239E+07  0.0000E+00
   2  3.1642E+06  0.0000E+00  1.5069E+07  1.8312E+07  0.0000E+00

      CONNECTED LAKE   TIME-STEP         STAGE-CHANGE          PERCENT
 LAKE    INFLUX      SURFACE AREA   TIME STEP  CUMULATIVE    DISCREPANCY
   1   0.0000E+00     6.2500E+06   3.9417E-05 -1.2971E+01       0.000
   2   0.0000E+00     6.2500E+06   8.5574E-05 -1.8035E+01       0.000
 --------------------------------------------------------------------------------



            CUMULATIVE HYDROLOGIC BUDGET SUMMARIES FOR SIMULATED LAKES
     (ALL FLUID FLUXES ARE SUMS OF VOLUMES ADDED TO THE LAKE SINCE INITIAL TIME)
     ---------------------------------------------------------------------------
 LAKE       PRECIP       EVAP       RUNOFF
   1     7.9717E+07  7.0783E+07  0.0000E+00
   2     7.9717E+07  7.0783E+07  0.0000E+00

            GROUND WATER            SURFACE WATER
 LAKE    INFLOW     OUTFLOW      INFLOW     OUTFLOW
   1  2.4929E+08  1.5644E+06  1.0801E+09  1.4178E+09
   2  2.7935E+08  1.4259E+06  1.5779E+09  1.9775E+09

         WATER    CONNECTED LAKE   CHANGE       PERCENT
 LAKE     USE         INFLUX       IN VOL.    DISCREPANCY
   1   0.0000E+00   0.0000E+00  -8.1070E+07      0.000
   2   0.0000E+00   0.0000E+00  -1.1272E+08      0.000
 --------------------------------------------------------------------------------

 
 SOLVING FOR HEAD 
     4 ITERATIONS FOR TIME STEP 164 IN STRESS PERIOD    1

 HEAD/DRAWDOWN PRINTOUT FLAG = 0     TOTAL BUDGET PRINTOUT FLAG = 0
 CELL-BY-CELL FLOW TERM FLAG = 1

 OUTPUT FLAGS FOR ALL LAYERS ARE THE SAME:
   HEAD    DRAWDOWN  HEAD  DRAWDOWN
 PRINTOUT  PRINTOUT  SAVE    SAVE
 ----------------------------------
     0         0       0       0



 STREAM LISTING     PERIOD      1   STEP      164

 LAYER ROW COL. STREAM  RCH.  FLOW INTO     FLOW TO   FLOW OUT OF   OVRLND.     DIRECT     STREAM       STREAM     STREAM     STREAM   STREAMBED  STREAMBED
                SEG.NO.  NO.  STRM. RCH.    AQUIFER    STRM. RCH.    RUNOFF     PRECIP       ET          HEAD       DEPTH      WIDTH   CONDCTNC.   GRADIENT

   1    2    5     1     1    6.9120E+05 -8.0027E+04   7.7123E+05  0.000E+00  0.000E+00  0.000E+00  1.25330E+02  1.382E+00  5.000E+00  5.000E+03 -3.201E+01
   1    3    5     1     2    7.7123E+05 -5.6355E+04   8.2758E+05  0.000E+00  0.000E+00  0.000E+00  1.24303E+02  1.458E+00  5.000E+00  5.000E+03 -2.254E+01
   1    4    5     1     3    8.2758E+05 -5.3345E+04   8.8093E+05  0.000E+00  0.000E+00  0.000E+00  1.23258E+02  1.517E+00  5.000E+00  5.000E+03 -2.134E+01
   1    4    6     1     4    8.8093E+05 -4.3605E+04   9.2453E+05  0.000E+00  0.000E+00  0.000E+00  1.22206E+02  1.568E+00  5.000E+00  5.000E+03 -1.744E+01
   1    4    7     1     5    9.2453E+05 -2.1230E+04   9.4576E+05  0.000E+00  0.000E+00  0.000E+00  1.21412E+02  1.602E+00  5.000E+00  2.500E+03 -1.698E+01
   1    4    8     1     6    9.4576E+05 -3.4863E+04   9.8062E+05  0.000E+00  0.000E+00  0.000E+00  1.20751E+02  1.630E+00  5.000E+00  3.750E+03 -1.859E+01
   1    5    8     1     7    9.8062E+05 -3.6805E+04   1.0174E+06  0.000E+00  0.000E+00  0.000E+00  1.19822E+02  1.666E+00  5.000E+00  5.000E+03 -1.472E+01
   1    6    8     1     8    1.0174E+06 -2.5356E+04   1.0428E+06  0.000E+00  0.000E+00  0.000E+00  1.18749E+02  1.697E+00  5.000E+00  5.000E+03 -1.014E+01
   1   12    9     2     1    1.3468E+06 -2.7254E+04   1.3740E+06  0.000E+00  0.000E+00  0.000E+00  1.16632E+02  2.192E+00  5.000E+00  5.000E+03 -1.090E+01
   1   13    9     2     2    1.3740E+06 -4.2926E+04   1.4169E+06  0.000E+00  0.000E+00  0.000E+00  1.15845E+02  2.226E+00  5.000E+00  5.000E+03 -1.717E+01
   1   14   10     2     3    1.4169E+06 -2.3177E+04   1.4401E+06  0.000E+00  0.000E+00  0.000E+00  1.15237E+02  2.257E+00  5.000E+00  2.795E+03 -1.658E+01
   1   14   10     2     4    1.4401E+06 -2.4397E+04   1.4645E+06  0.000E+00  0.000E+00  0.000E+00  1.14800E+02  2.280E+00  5.000E+00  2.795E+03 -1.746E+01
   1   15   10     2     5    1.4645E+06 -4.0991E+04   1.5055E+06  0.000E+00  0.000E+00  0.000E+00  1.14191E+02  2.310E+00  5.000E+00  5.000E+03 -1.640E+01
   1   16   10     2     6    1.5055E+06 -2.7395E+04   1.5329E+06  0.000E+00  0.000E+00  0.000E+00  1.13402E+02  2.342E+00  5.000E+00  5.000E+03 -1.096E+01
   1   22   10     3     1    1.8629E+06 -2.7824E+04   1.8907E+06  0.000E+00  0.000E+00  0.000E+00  1.11504E+02  2.548E+00  5.000E+00  5.000E+03 -1.113E+01
   1   23   10     3     2    1.8907E+06 -4.0082E+04   1.9308E+06  0.000E+00  0.000E+00  0.000E+00  1.10704E+02  2.575E+00  5.000E+00  3.750E+03 -2.138E+01
   1   23   11     3     3    1.9308E+06 -2.3757E+04   1.9545E+06  0.000E+00  0.000E+00  0.000E+00  1.10138E+02  2.601E+00  5.000E+00  2.500E+03 -1.901E+01
   1   23   12     3     4    1.9545E+06 -4.7138E+04   2.0017E+06  0.000E+00  0.000E+00  0.000E+00  1.09457E+02  2.630E+00  5.000E+00  5.000E+03 -1.886E+01
   1   23   13     3     5    2.0017E+06 -5.0782E+04   2.0525E+06  0.000E+00  0.000E+00  0.000E+00  1.08550E+02  2.668E+00  5.000E+00  5.000E+03 -2.031E+01
   1   23   14     3     6    2.0525E+06 -5.4502E+04   2.1070E+06  0.000E+00  0.000E+00  0.000E+00  1.07646E+02  2.710E+00  5.000E+00  5.000E+03 -2.180E+01
   1   23   15     3     7    2.1070E+06 -6.1851E+04   2.1688E+06  0.000E+00  0.000E+00  0.000E+00  1.06745E+02  2.755E+00  5.000E+00  5.000E+03 -2.474E+01
   1   23   16     3     8    2.1688E+06 -9.0025E+04   2.2588E+06  0.000E+00  0.000E+00  0.000E+00  1.05858E+02  2.813E+00  5.000E+00  5.000E+03 -3.601E+01





     0  LAKE CELLS ARE DRY.

 PERIOD     1     TIME STEP   164     TIME STEP LENGTH  9.8798E+00
 PERIOD TIME  1.1094E+03     TOTAL SIMULATION TIME  1.1094E+03


                 HYDROLOGIC BUDGET SUMMARIES FOR SIMULATED LAKES
     (ALL FLUID FLUXES ARE VOLUMES ADDED TO THE LAKE DURING PRESENT TIME STEP)
     -------------------------------------------------------------------------
 LAKE    STAGE         VOLUME     VOL.CHANGE      PRECIP     EVAPORATION        RUNOFF
   1   117.0287     8.5178E+07    2.0800E+02    7.1628E+05    6.3601E+05    0.0000E+00
   2   111.9651     5.3531E+07    4.8800E+02    7.1628E+05    6.3601E+05    0.0000E+00

            GROUND WATER            SURFACE WATER        WATER
 LAKE    INFLOW     OUTFLOW      INFLOW     OUTFLOW       USE
   1  2.9232E+06  0.0000E+00  1.0303E+07  1.3306E+07  0.0000E+00
   2  3.1803E+06  0.0000E+00  1.5145E+07  1.8405E+07  0.0000E+00

      CONNECTED LAKE   TIME-STEP         STAGE-CHANGE          PERCENT
 LAKE    INFLUX      SURFACE AREA   TIME STEP  CUMULATIVE    DISCREPANCY
   1   0.0000E+00     6.2500E+06   3.3488E-05 -1.2971E+01       0.000
   2   0.0000E+00     6.2500E+06   7.7703E-05 -1.8035E+01       0.000
 --------------------------------------------------------------------------------



            CUMULATIVE HYDROLOGIC BUDGET SUMMARIES FOR SIMULATED LAKES
     (ALL FLUID FLUXES ARE SUMS OF VOLUMES ADDED TO THE LAKE SINCE INITIAL TIME)
     ---------------------------------------------------------------------------
 LAKE       PRECIP       EVAP       RUNOFF
   1     8.0433E+07  7.1419E+07  0.0000E+00
   2     8.0433E+07  7.1419E+07  0.0000E+00

            GROUND WATER            SURFACE WATER
 LAKE    INFLOW     OUTFLOW      INFLOW     OUTFLOW
   1  2.5221E+08  1.5644E+06  1.0904E+09  1.4311E+09
   2  2.8254E+08  1.4259E+06  1.5931E+09  1.9959E+09

         WATER    CONNECTED LAKE   CHANGE       PERCENT
 LAKE     USE         INFLUX       IN VOL.    DISCREPANCY
   1   0.0000E+00   0.0000E+00  -8.1070E+07      0.000
   2   0.0000E+00   0.0000E+00  -1.1272E+08      0.000
 --------------------------------------------------------------------------------

 
 SOLVING FOR HEAD 
     4 ITERATIONS FOR TIME STEP 165 IN STRESS PERIOD    1

 HEAD/DRAWDOWN PRINTOUT FLAG = 0     TOTAL BUDGET PRINTOUT FLAG = 0
 CELL-BY-CELL FLOW TERM FLAG = 1

 OUTPUT FLAGS FOR ALL LAYERS ARE THE SAME:
   HEAD    DRAWDOWN  HEAD  DRAWDOWN
 PRINTOUT  PRINTOUT  SAVE    SAVE
 ----------------------------------
     0         0       0       0



 STREAM LISTING     PERIOD      1   STEP      165

 LAYER ROW COL. STREAM  RCH.  FLOW INTO     FLOW TO   FLOW OUT OF   OVRLND.     DIRECT     STREAM       STREAM     STREAM     STREAM   STREAMBED  STREAMBED
                SEG.NO.  NO.  STRM. RCH.    AQUIFER    STRM. RCH.    RUNOFF     PRECIP       ET          HEAD       DEPTH      WIDTH   CONDCTNC.   GRADIENT

   1    2    5     1     1    6.9120E+05 -8.0027E+04   7.7123E+05  0.000E+00  0.000E+00  0.000E+00  1.25330E+02  1.382E+00  5.000E+00  5.000E+03 -3.201E+01
   1    3    5     1     2    7.7123E+05 -5.6356E+04   8.2758E+05  0.000E+00  0.000E+00  0.000E+00  1.24303E+02  1.458E+00  5.000E+00  5.000E+03 -2.254E+01
   1    4    5     1     3    8.2758E+05 -5.3346E+04   8.8093E+05  0.000E+00  0.000E+00  0.000E+00  1.23258E+02  1.517E+00  5.000E+00  5.000E+03 -2.134E+01
   1    4    6     1     4    8.8093E+05 -4.3606E+04   9.2454E+05  0.000E+00  0.000E+00  0.000E+00  1.22206E+02  1.568E+00  5.000E+00  5.000E+03 -1.744E+01
   1    4    7     1     5    9.2454E+05 -2.1231E+04   9.4577E+05  0.000E+00  0.000E+00  0.000E+00  1.21412E+02  1.602E+00  5.000E+00  2.500E+03 -1.698E+01
   1    4    8     1     6    9.4577E+05 -3.4864E+04   9.8063E+05  0.000E+00  0.000E+00  0.000E+00  1.20751E+02  1.630E+00  5.000E+00  3.750E+03 -1.859E+01
   1    5    8     1     7    9.8063E+05 -3.6807E+04   1.0174E+06  0.000E+00  0.000E+00  0.000E+00  1.19822E+02  1.666E+00  5.000E+00  5.000E+03 -1.472E+01
   1    6    8     1     8    1.0174E+06 -2.5357E+04   1.0428E+06  0.000E+00  0.000E+00  0.000E+00  1.18749E+02  1.697E+00  5.000E+00  5.000E+03 -1.014E+01
   1   12    9     2     1    1.3468E+06 -2.7257E+04   1.3741E+06  0.000E+00  0.000E+00  0.000E+00  1.16632E+02  2.192E+00  5.000E+00  5.000E+03 -1.090E+01
   1   13    9     2     2    1.3741E+06 -4.2932E+04   1.4170E+06  0.000E+00  0.000E+00  0.000E+00  1.15845E+02  2.226E+00  5.000E+00  5.000E+03 -1.717E+01
   1   14   10     2     3    1.4170E+06 -2.3180E+04   1.4402E+06  0.000E+00  0.000E+00  0.000E+00  1.15237E+02  2.257E+00  5.000E+00  2.795E+03 -1.659E+01
   1   14   10     2     4    1.4402E+06 -2.4400E+04   1.4646E+06  0.000E+00  0.000E+00  0.000E+00  1.14800E+02  2.280E+00  5.000E+00  2.795E+03 -1.746E+01
   1   15   10     2     5    1.4646E+06 -4.0996E+04   1.5056E+06  0.000E+00  0.000E+00  0.000E+00  1.14191E+02  2.310E+00  5.000E+00  5.000E+03 -1.640E+01
   1   16   10     2     6    1.5056E+06 -2.7398E+04   1.5330E+06  0.000E+00  0.000E+00  0.000E+00  1.13402E+02  2.342E+00  5.000E+00  5.000E+03 -1.096E+01
   1   22   10     3     1    1.8630E+06 -2.7826E+04   1.8908E+06  0.000E+00  0.000E+00  0.000E+00  1.11504E+02  2.548E+00  5.000E+00  5.000E+03 -1.113E+01
   1   23   10     3     2    1.8908E+06 -4.0084E+04   1.9309E+06  0.000E+00  0.000E+00  0.000E+00  1.10704E+02  2.576E+00  5.000E+00  3.750E+03 -2.138E+01
   1   23   11     3     3    1.9309E+06 -2.3758E+04   1.9546E+06  0.000E+00  0.000E+00  0.000E+00  1.10138E+02  2.601E+00  5.000E+00  2.500E+03 -1.901E+01
   1   23   12     3     4    1.9546E+06 -4.7140E+04   2.0018E+06  0.000E+00  0.000E+00  0.000E+00  1.09457E+02  2.630E+00  5.000E+00  5.000E+03 -1.886E+01
   1   23   13     3     5    2.0018E+06 -5.0783E+04   2.0526E+06  0.000E+00  0.000E+00  0.000E+00  1.08550E+02  2.669E+00  5.000E+00  5.000E+03 -2.031E+01
   1   23   14     3     6    2.0526E+06 -5.4503E+04   2.1071E+06  0.000E+00  0.000E+00  0.000E+00  1.07646E+02  2.710E+00  5.000E+00  5.000E+03 -2.180E+01
   1   23   15     3     7    2.1071E+06 -6.1852E+04   2.1689E+06  0.000E+00  0.000E+00  0.000E+00  1.06745E+02  2.755E+00  5.000E+00  5.000E+03 -2.474E+01
   1   23   16     3     8    2.1689E+06 -9.0025E+04   2.2589E+06  0.000E+00  0.000E+00  0.000E+00  1.05858E+02  2.813E+00  5.000E+00  5.000E+03 -3.601E+01





     0  LAKE CELLS ARE DRY.

 PERIOD     1     TIME STEP   165     TIME STEP LENGTH  9.9292E+00
 PERIOD TIME  1.1194E+03     TOTAL SIMULATION TIME  1.1194E+03


                 HYDROLOGIC BUDGET SUMMARIES FOR SIMULATED LAKES
     (ALL FLUID FLUXES ARE VOLUMES ADDED TO THE LAKE DURING PRESENT TIME STEP)
     -------------------------------------------------------------------------
 LAKE    STAGE         VOLUME     VOL.CHANGE      PRECIP     EVAPORATION        RUNOFF
   1   117.0287     8.5179E+07    2.1600E+02    7.1987E+05    6.3919E+05    0.0000E+00
   2   111.9652     5.3532E+07    4.8000E+02    7.1987E+05    6.3919E+05    0.0000E+00

            GROUND WATER            SURFACE WATER        WATER
 LAKE    INFLOW     OUTFLOW      INFLOW     OUTFLOW       USE
   1  2.9381E+06  0.0000E+00  1.0354E+07  1.3373E+07  0.0000E+00
   2  3.1966E+06  0.0000E+00  1.5221E+07  1.8498E+07  0.0000E+00

      CONNECTED LAKE   TIME-STEP         STAGE-CHANGE          PERCENT
 LAKE    INFLUX      SURFACE AREA   TIME STEP  CUMULATIVE    DISCREPANCY
   1   0.0000E+00     6.2500E+06   3.4450E-05 -1.2971E+01       0.000
   2   0.0000E+00     6.2500E+06   7.7248E-05 -1.8035E+01       0.000
 --------------------------------------------------------------------------------



            CUMULATIVE HYDROLOGIC BUDGET SUMMARIES FOR SIMULATED LAKES
     (ALL FLUID FLUXES ARE SUMS OF VOLUMES ADDED TO THE LAKE SINCE INITIAL TIME)
     ---------------------------------------------------------------------------
 LAKE       PRECIP       EVAP       RUNOFF
   1     8.1153E+07  7.2058E+07  0.0000E+00
   2     8.1153E+07  7.2058E+07  0.0000E+00

            GROUND WATER            SURFACE WATER
 LAKE    INFLOW     OUTFLOW      INFLOW     OUTFLOW
   1  2.5515E+08  1.5644E+06  1.1007E+09  1.4445E+09
   2  2.8573E+08  1.4259E+06  1.6083E+09  2.0144E+09

         WATER    CONNECTED LAKE   CHANGE       PERCENT
 LAKE     USE         INFLUX       IN VOL.    DISCREPANCY
   1   0.0000E+00   0.0000E+00  -8.1070E+07      0.000
   2   0.0000E+00   0.0000E+00  -1.1272E+08      0.000
 --------------------------------------------------------------------------------

 
 SOLVING FOR HEAD 
     4 ITERATIONS FOR TIME STEP 166 IN STRESS PERIOD    1

 HEAD/DRAWDOWN PRINTOUT FLAG = 0     TOTAL BUDGET PRINTOUT FLAG = 0
 CELL-BY-CELL FLOW TERM FLAG = 1

 OUTPUT FLAGS FOR ALL LAYERS ARE THE SAME:
   HEAD    DRAWDOWN  HEAD  DRAWDOWN
 PRINTOUT  PRINTOUT  SAVE    SAVE
 ----------------------------------
     0         0       0       0



 STREAM LISTING     PERIOD      1   STEP      166

 LAYER ROW COL. STREAM  RCH.  FLOW INTO     FLOW TO   FLOW OUT OF   OVRLND.     DIRECT     STREAM       STREAM     STREAM     STREAM   STREAMBED  STREAMBED
                SEG.NO.  NO.  STRM. RCH.    AQUIFER    STRM. RCH.    RUNOFF     PRECIP       ET          HEAD       DEPTH      WIDTH   CONDCTNC.   GRADIENT

   1    2    5     1     1    6.9120E+05 -8.0027E+04   7.7123E+05  0.000E+00  0.000E+00  0.000E+00  1.25330E+02  1.382E+00  5.000E+00  5.000E+03 -3.201E+01
   1    3    5     1     2    7.7123E+05 -5.6356E+04   8.2758E+05  0.000E+00  0.000E+00  0.000E+00  1.24303E+02  1.458E+00  5.000E+00  5.000E+03 -2.254E+01
   1    4    5     1     3    8.2758E+05 -5.3348E+04   8.8093E+05  0.000E+00  0.000E+00  0.000E+00  1.23258E+02  1.517E+00  5.000E+00  5.000E+03 -2.134E+01
   1    4    6     1     4    8.8093E+05 -4.3607E+04   9.2454E+05  0.000E+00  0.000E+00  0.000E+00  1.22206E+02  1.568E+00  5.000E+00  5.000E+03 -1.744E+01
   1    4    7     1     5    9.2454E+05 -2.1231E+04   9.4577E+05  0.000E+00  0.000E+00  0.000E+00  1.21412E+02  1.602E+00  5.000E+00  2.500E+03 -1.699E+01
   1    4    8     1     6    9.4577E+05 -3.4864E+04   9.8063E+05  0.000E+00  0.000E+00  0.000E+00  1.20751E+02  1.630E+00  5.000E+00  3.750E+03 -1.859E+01
   1    5    8     1     7    9.8063E+05 -3.6808E+04   1.0174E+06  0.000E+00  0.000E+00  0.000E+00  1.19822E+02  1.666E+00  5.000E+00  5.000E+03 -1.472E+01
   1    6    8     1     8    1.0174E+06 -2.5358E+04   1.0428E+06  0.000E+00  0.000E+00  0.000E+00  1.18749E+02  1.697E+00  5.000E+00  5.000E+03 -1.014E+01
   1   12    9     2     1    1.3468E+06 -2.7259E+04   1.3741E+06  0.000E+00  0.000E+00  0.000E+00  1.16632E+02  2.192E+00  5.000E+00  5.000E+03 -1.090E+01
   1   13    9     2     2    1.3741E+06 -4.2937E+04   1.4170E+06  0.000E+00  0.000E+00  0.000E+00  1.15845E+02  2.226E+00  5.000E+00  5.000E+03 -1.717E+01
   1   14   10     2     3    1.4170E+06 -2.3183E+04   1.4402E+06  0.000E+00  0.000E+00  0.000E+00  1.15237E+02  2.257E+00  5.000E+00  2.795E+03 -1.659E+01
   1   14   10     2     4    1.4402E+06 -2.4402E+04   1.4646E+06  0.000E+00  0.000E+00  0.000E+00  1.14800E+02  2.280E+00  5.000E+00  2.795E+03 -1.746E+01
   1   15   10     2     5    1.4646E+06 -4.1001E+04   1.5056E+06  0.000E+00  0.000E+00  0.000E+00  1.14191E+02  2.310E+00  5.000E+00  5.000E+03 -1.640E+01
   1   16   10     2     6    1.5056E+06 -2.7401E+04   1.5330E+06  0.000E+00  0.000E+00  0.000E+00  1.13403E+02  2.342E+00  5.000E+00  5.000E+03 -1.096E+01
   1   22   10     3     1    1.8631E+06 -2.7827E+04   1.8909E+06  0.000E+00  0.000E+00  0.000E+00  1.11504E+02  2.548E+00  5.000E+00  5.000E+03 -1.113E+01
   1   23   10     3     2    1.8909E+06 -4.0086E+04   1.9310E+06  0.000E+00  0.000E+00  0.000E+00  1.10704E+02  2.576E+00  5.000E+00  3.750E+03 -2.138E+01
   1   23   11     3     3    1.9310E+06 -2.3759E+04   1.9547E+06  0.000E+00  0.000E+00  0.000E+00  1.10138E+02  2.601E+00  5.000E+00  2.500E+03 -1.901E+01
   1   23   12     3     4    1.9547E+06 -4.7142E+04   2.0019E+06  0.000E+00  0.000E+00  0.000E+00  1.09457E+02  2.630E+00  5.000E+00  5.000E+03 -1.886E+01
   1   23   13     3     5    2.0019E+06 -5.0785E+04   2.0527E+06  0.000E+00  0.000E+00  0.000E+00  1.08550E+02  2.669E+00  5.000E+00  5.000E+03 -2.031E+01
   1   23   14     3     6    2.0527E+06 -5.4504E+04   2.1072E+06  0.000E+00  0.000E+00  0.000E+00  1.07646E+02  2.710E+00  5.000E+00  5.000E+03 -2.180E+01
   1   23   15     3     7    2.1072E+06 -6.1852E+04   2.1690E+06  0.000E+00  0.000E+00  0.000E+00  1.06745E+02  2.755E+00  5.000E+00  5.000E+03 -2.474E+01
   1   23   16     3     8    2.1690E+06 -9.0025E+04   2.2590E+06  0.000E+00  0.000E+00  0.000E+00  1.05858E+02  2.813E+00  5.000E+00  5.000E+03 -3.601E+01





     0  LAKE CELLS ARE DRY.

 PERIOD     1     TIME STEP   166     TIME STEP LENGTH  9.9788E+00
 PERIOD TIME  1.1293E+03     TOTAL SIMULATION TIME  1.1293E+03


                 HYDROLOGIC BUDGET SUMMARIES FOR SIMULATED LAKES
     (ALL FLUID FLUXES ARE VOLUMES ADDED TO THE LAKE DURING PRESENT TIME STEP)
     -------------------------------------------------------------------------
 LAKE    STAGE         VOLUME     VOL.CHANGE      PRECIP     EVAPORATION        RUNOFF
   1   117.0287     8.5179E+07    1.9200E+02    7.2347E+05    6.4239E+05    0.0000E+00
   2   111.9653     5.3532E+07    4.2400E+02    7.2347E+05    6.4239E+05    0.0000E+00

            GROUND WATER            SURFACE WATER        WATER
 LAKE    INFLOW     OUTFLOW      INFLOW     OUTFLOW       USE
   1  2.9530E+06  0.0000E+00  1.0406E+07  1.3440E+07  0.0000E+00
   2  3.2128E+06  0.0000E+00  1.5298E+07  1.8591E+07  0.0000E+00

      CONNECTED LAKE   TIME-STEP         STAGE-CHANGE          PERCENT
 LAKE    INFLUX      SURFACE AREA   TIME STEP  CUMULATIVE    DISCREPANCY
   1   0.0000E+00     6.2500E+06   3.0581E-05 -1.2971E+01       0.000
   2   0.0000E+00     6.2500E+06   6.7605E-05 -1.8035E+01       0.000
 --------------------------------------------------------------------------------



            CUMULATIVE HYDROLOGIC BUDGET SUMMARIES FOR SIMULATED LAKES
     (ALL FLUID FLUXES ARE SUMS OF VOLUMES ADDED TO THE LAKE SINCE INITIAL TIME)
     ---------------------------------------------------------------------------
 LAKE       PRECIP       EVAP       RUNOFF
   1     8.1877E+07  7.2701E+07  0.0000E+00
   2     8.1877E+07  7.2701E+07  0.0000E+00

            GROUND WATER            SURFACE WATER
 LAKE    INFLOW     OUTFLOW      INFLOW     OUTFLOW
   1  2.5810E+08  1.5644E+06  1.1111E+09  1.4579E+09
   2  2.8894E+08  1.4259E+06  1.6236E+09  2.0330E+09

         WATER    CONNECTED LAKE   CHANGE       PERCENT
 LAKE     USE         INFLUX       IN VOL.    DISCREPANCY
   1   0.0000E+00   0.0000E+00  -8.1070E+07      0.000
   2   0.0000E+00   0.0000E+00  -1.1272E+08      0.000
 --------------------------------------------------------------------------------

 
 SOLVING FOR HEAD 
     4 ITERATIONS FOR TIME STEP 167 IN STRESS PERIOD    1

 HEAD/DRAWDOWN PRINTOUT FLAG = 0     TOTAL BUDGET PRINTOUT FLAG = 0
 CELL-BY-CELL FLOW TERM FLAG = 1

 OUTPUT FLAGS FOR ALL LAYERS ARE THE SAME:
   HEAD    DRAWDOWN  HEAD  DRAWDOWN
 PRINTOUT  PRINTOUT  SAVE    SAVE
 ----------------------------------
     0         0       0       0



 STREAM LISTING     PERIOD      1   STEP      167

 LAYER ROW COL. STREAM  RCH.  FLOW INTO     FLOW TO   FLOW OUT OF   OVRLND.     DIRECT     STREAM       STREAM     STREAM     STREAM   STREAMBED  STREAMBED
                SEG.NO.  NO.  STRM. RCH.    AQUIFER    STRM. RCH.    RUNOFF     PRECIP       ET          HEAD       DEPTH      WIDTH   CONDCTNC.   GRADIENT

   1    2    5     1     1    6.9120E+05 -8.0027E+04   7.7123E+05  0.000E+00  0.000E+00  0.000E+00  1.25330E+02  1.382E+00  5.000E+00  5.000E+03 -3.201E+01
   1    3    5     1     2    7.7123E+05 -5.6357E+04   8.2758E+05  0.000E+00  0.000E+00  0.000E+00  1.24303E+02  1.458E+00  5.000E+00  5.000E+03 -2.254E+01
   1    4    5     1     3    8.2758E+05 -5.3349E+04   8.8093E+05  0.000E+00  0.000E+00  0.000E+00  1.23258E+02  1.517E+00  5.000E+00  5.000E+03 -2.134E+01
   1    4    6     1     4    8.8093E+05 -4.3608E+04   9.2454E+05  0.000E+00  0.000E+00  0.000E+00  1.22206E+02  1.568E+00  5.000E+00  5.000E+03 -1.744E+01
   1    4    7     1     5    9.2454E+05 -2.1232E+04   9.4577E+05  0.000E+00  0.000E+00  0.000E+00  1.21412E+02  1.602E+00  5.000E+00  2.500E+03 -1.699E+01
   1    4    8     1     6    9.4577E+05 -3.4865E+04   9.8064E+05  0.000E+00  0.000E+00  0.000E+00  1.20751E+02  1.630E+00  5.000E+00  3.750E+03 -1.859E+01
   1    5    8     1     7    9.8064E+05 -3.6810E+04   1.0174E+06  0.000E+00  0.000E+00  0.000E+00  1.19822E+02  1.667E+00  5.000E+00  5.000E+03 -1.472E+01
   1    6    8     1     8    1.0174E+06 -2.5360E+04   1.0428E+06  0.000E+00  0.000E+00  0.000E+00  1.18749E+02  1.697E+00  5.000E+00  5.000E+03 -1.014E+01
   1   12    9     2     1    1.3469E+06 -2.7262E+04   1.3741E+06  0.000E+00  0.000E+00  0.000E+00  1.16632E+02  2.192E+00  5.000E+00  5.000E+03 -1.090E+01
   1   13    9     2     2    1.3741E+06 -4.2942E+04   1.4171E+06  0.000E+00  0.000E+00  0.000E+00  1.15845E+02  2.226E+00  5.000E+00  5.000E+03 -1.718E+01
   1   14   10     2     3    1.4171E+06 -2.3186E+04   1.4403E+06  0.000E+00  0.000E+00  0.000E+00  1.15237E+02  2.257E+00  5.000E+00  2.795E+03 -1.659E+01
   1   14   10     2     4    1.4403E+06 -2.4405E+04   1.4647E+06  0.000E+00  0.000E+00  0.000E+00  1.14800E+02  2.280E+00  5.000E+00  2.795E+03 -1.746E+01
   1   15   10     2     5    1.4647E+06 -4.1006E+04   1.5057E+06  0.000E+00  0.000E+00  0.000E+00  1.14191E+02  2.310E+00  5.000E+00  5.000E+03 -1.640E+01
   1   16   10     2     6    1.5057E+06 -2.7404E+04   1.5331E+06  0.000E+00  0.000E+00  0.000E+00  1.13403E+02  2.342E+00  5.000E+00  5.000E+03 -1.096E+01
   1   22   10     3     1    1.8631E+06 -2.7829E+04   1.8910E+06  0.000E+00  0.000E+00  0.000E+00  1.11504E+02  2.548E+00  5.000E+00  5.000E+03 -1.113E+01
   1   23   10     3     2    1.8910E+06 -4.0087E+04   1.9311E+06  0.000E+00  0.000E+00  0.000E+00  1.10704E+02  2.576E+00  5.000E+00  3.750E+03 -2.138E+01
   1   23   11     3     3    1.9311E+06 -2.3759E+04   1.9548E+06  0.000E+00  0.000E+00  0.000E+00  1.10138E+02  2.601E+00  5.000E+00  2.500E+03 -1.901E+01
   1   23   12     3     4    1.9548E+06 -4.7143E+04   2.0020E+06  0.000E+00  0.000E+00  0.000E+00  1.09457E+02  2.630E+00  5.000E+00  5.000E+03 -1.886E+01
   1   23   13     3     5    2.0020E+06 -5.0787E+04   2.0527E+06  0.000E+00  0.000E+00  0.000E+00  1.08550E+02  2.669E+00  5.000E+00  5.000E+03 -2.031E+01
   1   23   14     3     6    2.0527E+06 -5.4505E+04   2.1072E+06  0.000E+00  0.000E+00  0.000E+00  1.07646E+02  2.710E+00  5.000E+00  5.000E+03 -2.180E+01
   1   23   15     3     7    2.1072E+06 -6.1853E+04   2.1691E+06  0.000E+00  0.000E+00  0.000E+00  1.06745E+02  2.755E+00  5.000E+00  5.000E+03 -2.474E+01
   1   23   16     3     8    2.1691E+06 -9.0026E+04   2.2591E+06  0.000E+00  0.000E+00  0.000E+00  1.05858E+02  2.814E+00  5.000E+00  5.000E+03 -3.601E+01





     0  LAKE CELLS ARE DRY.

 PERIOD     1     TIME STEP   167     TIME STEP LENGTH  1.0029E+01
 PERIOD TIME  1.1394E+03     TOTAL SIMULATION TIME  1.1394E+03


                 HYDROLOGIC BUDGET SUMMARIES FOR SIMULATED LAKES
     (ALL FLUID FLUXES ARE VOLUMES ADDED TO THE LAKE DURING PRESENT TIME STEP)
     -------------------------------------------------------------------------
 LAKE    STAGE         VOLUME     VOL.CHANGE      PRECIP     EVAPORATION        RUNOFF
   1   117.0288     8.5179E+07    1.7600E+02    7.2708E+05    6.4560E+05    0.0000E+00
   2   111.9653     5.3532E+07    3.9600E+02    7.2708E+05    6.4560E+05    0.0000E+00

            GROUND WATER            SURFACE WATER        WATER
 LAKE    INFLOW     OUTFLOW      INFLOW     OUTFLOW       USE
   1  2.9680E+06  0.0000E+00  1.0458E+07  1.3507E+07  0.0000E+00
   2  3.2291E+06  0.0000E+00  1.5375E+07  1.8685E+07  0.0000E+00

      CONNECTED LAKE   TIME-STEP         STAGE-CHANGE          PERCENT
 LAKE    INFLUX      SURFACE AREA   TIME STEP  CUMULATIVE    DISCREPANCY
   1   0.0000E+00     6.2500E+06   2.8227E-05 -1.2971E+01       0.000
   2   0.0000E+00     6.2500E+06   6.3480E-05 -1.8035E+01       0.000
 --------------------------------------------------------------------------------



            CUMULATIVE HYDROLOGIC BUDGET SUMMARIES FOR SIMULATED LAKES
     (ALL FLUID FLUXES ARE SUMS OF VOLUMES ADDED TO THE LAKE SINCE INITIAL TIME)
     ---------------------------------------------------------------------------
 LAKE       PRECIP       EVAP       RUNOFF
   1     8.2604E+07  7.3346E+07  0.0000E+00
   2     8.2604E+07  7.3346E+07  0.0000E+00

            GROUND WATER            SURFACE WATER
 LAKE    INFLOW     OUTFLOW      INFLOW     OUTFLOW
   1  2.6107E+08  1.5644E+06  1.1216E+09  1.4714E+09
   2  2.9217E+08  1.4259E+06  1.6389E+09  2.0517E+09

         WATER    CONNECTED LAKE   CHANGE       PERCENT
 LAKE     USE         INFLUX       IN VOL.    DISCREPANCY
   1   0.0000E+00   0.0000E+00  -8.1069E+07      0.000
   2   0.0000E+00   0.0000E+00  -1.1272E+08      0.000
 --------------------------------------------------------------------------------

 
 SOLVING FOR HEAD 
     4 ITERATIONS FOR TIME STEP 168 IN STRESS PERIOD    1

 HEAD/DRAWDOWN PRINTOUT FLAG = 0     TOTAL BUDGET PRINTOUT FLAG = 0
 CELL-BY-CELL FLOW TERM FLAG = 1

 OUTPUT FLAGS FOR ALL LAYERS ARE THE SAME:
   HEAD    DRAWDOWN  HEAD  DRAWDOWN
 PRINTOUT  PRINTOUT  SAVE    SAVE
 ----------------------------------
     0         0       0       0



 STREAM LISTING     PERIOD      1   STEP      168

 LAYER ROW COL. STREAM  RCH.  FLOW INTO     FLOW TO   FLOW OUT OF   OVRLND.     DIRECT     STREAM       STREAM     STREAM     STREAM   STREAMBED  STREAMBED
                SEG.NO.  NO.  STRM. RCH.    AQUIFER    STRM. RCH.    RUNOFF     PRECIP       ET          HEAD       DEPTH      WIDTH   CONDCTNC.   GRADIENT

   1    2    5     1     1    6.9120E+05 -8.0027E+04   7.7123E+05  0.000E+00  0.000E+00  0.000E+00  1.25330E+02  1.382E+00  5.000E+00  5.000E+03 -3.201E+01
   1    3    5     1     2    7.7123E+05 -5.6357E+04   8.2758E+05  0.000E+00  0.000E+00  0.000E+00  1.24303E+02  1.458E+00  5.000E+00  5.000E+03 -2.254E+01
   1    4    5     1     3    8.2758E+05 -5.3350E+04   8.8094E+05  0.000E+00  0.000E+00  0.000E+00  1.23258E+02  1.517E+00  5.000E+00  5.000E+03 -2.134E+01
   1    4    6     1     4    8.8094E+05 -4.3609E+04   9.2454E+05  0.000E+00  0.000E+00  0.000E+00  1.22206E+02  1.568E+00  5.000E+00  5.000E+03 -1.744E+01
   1    4    7     1     5    9.2454E+05 -2.1232E+04   9.4578E+05  0.000E+00  0.000E+00  0.000E+00  1.21412E+02  1.602E+00  5.000E+00  2.500E+03 -1.699E+01
   1    4    8     1     6    9.4578E+05 -3.4866E+04   9.8064E+05  0.000E+00  0.000E+00  0.000E+00  1.20751E+02  1.630E+00  5.000E+00  3.750E+03 -1.860E+01
   1    5    8     1     7    9.8064E+05 -3.6811E+04   1.0175E+06  0.000E+00  0.000E+00  0.000E+00  1.19822E+02  1.667E+00  5.000E+00  5.000E+03 -1.472E+01
   1    6    8     1     8    1.0175E+06 -2.5361E+04   1.0428E+06  0.000E+00  0.000E+00  0.000E+00  1.18749E+02  1.697E+00  5.000E+00  5.000E+03 -1.014E+01
   1   12    9     2     1    1.3469E+06 -2.7265E+04   1.3742E+06  0.000E+00  0.000E+00  0.000E+00  1.16632E+02  2.192E+00  5.000E+00  5.000E+03 -1.091E+01
   1   13    9     2     2    1.3742E+06 -4.2946E+04   1.4171E+06  0.000E+00  0.000E+00  0.000E+00  1.15845E+02  2.226E+00  5.000E+00  5.000E+03 -1.718E+01
   1   14   10     2     3    1.4171E+06 -2.3188E+04   1.4403E+06  0.000E+00  0.000E+00  0.000E+00  1.15237E+02  2.257E+00  5.000E+00  2.795E+03 -1.659E+01
   1   14   10     2     4    1.4403E+06 -2.4408E+04   1.4647E+06  0.000E+00  0.000E+00  0.000E+00  1.14800E+02  2.280E+00  5.000E+00  2.795E+03 -1.747E+01
   1   15   10     2     5    1.4647E+06 -4.1010E+04   1.5057E+06  0.000E+00  0.000E+00  0.000E+00  1.14191E+02  2.311E+00  5.000E+00  5.000E+03 -1.640E+01
   1   16   10     2     6    1.5057E+06 -2.7407E+04   1.5331E+06  0.000E+00  0.000E+00  0.000E+00  1.13403E+02  2.342E+00  5.000E+00  5.000E+03 -1.096E+01
   1   22   10     3     1    1.8632E+06 -2.7830E+04   1.8910E+06  0.000E+00  0.000E+00  0.000E+00  1.11504E+02  2.548E+00  5.000E+00  5.000E+03 -1.113E+01
   1   23   10     3     2    1.8910E+06 -4.0088E+04   1.9311E+06  0.000E+00  0.000E+00  0.000E+00  1.10704E+02  2.576E+00  5.000E+00  3.750E+03 -2.138E+01
   1   23   11     3     3    1.9311E+06 -2.3760E+04   1.9549E+06  0.000E+00  0.000E+00  0.000E+00  1.10138E+02  2.601E+00  5.000E+00  2.500E+03 -1.901E+01
   1   23   12     3     4    1.9549E+06 -4.7145E+04   2.0020E+06  0.000E+00  0.000E+00  0.000E+00  1.09457E+02  2.630E+00  5.000E+00  5.000E+03 -1.886E+01
   1   23   13     3     5    2.0020E+06 -5.0788E+04   2.0528E+06  0.000E+00  0.000E+00  0.000E+00  1.08550E+02  2.669E+00  5.000E+00  5.000E+03 -2.032E+01
   1   23   14     3     6    2.0528E+06 -5.4506E+04   2.1073E+06  0.000E+00  0.000E+00  0.000E+00  1.07646E+02  2.710E+00  5.000E+00  5.000E+03 -2.180E+01
   1   23   15     3     7    2.1073E+06 -6.1854E+04   2.1692E+06  0.000E+00  0.000E+00  0.000E+00  1.06745E+02  2.755E+00  5.000E+00  5.000E+03 -2.474E+01
   1   23   16     3     8    2.1692E+06 -9.0026E+04   2.2592E+06  0.000E+00  0.000E+00  0.000E+00  1.05858E+02  2.814E+00  5.000E+00  5.000E+03 -3.601E+01





     0  LAKE CELLS ARE DRY.

 PERIOD     1     TIME STEP   168     TIME STEP LENGTH  1.0079E+01
 PERIOD TIME  1.1494E+03     TOTAL SIMULATION TIME  1.1494E+03


                 HYDROLOGIC BUDGET SUMMARIES FOR SIMULATED LAKES
     (ALL FLUID FLUXES ARE VOLUMES ADDED TO THE LAKE DURING PRESENT TIME STEP)
     -------------------------------------------------------------------------
 LAKE    STAGE         VOLUME     VOL.CHANGE      PRECIP     EVAPORATION        RUNOFF
   1   117.0288     8.5179E+07    1.6000E+02    7.3072E+05    6.4883E+05    0.0000E+00
   2   111.9654     5.3533E+07    3.6800E+02    7.3072E+05    6.4883E+05    0.0000E+00

            GROUND WATER            SURFACE WATER        WATER
 LAKE    INFLOW     OUTFLOW      INFLOW     OUTFLOW       USE
   1  2.9830E+06  0.0000E+00  1.0510E+07  1.3575E+07  0.0000E+00
   2  3.2455E+06  0.0000E+00  1.5452E+07  1.8779E+07  0.0000E+00

      CONNECTED LAKE   TIME-STEP         STAGE-CHANGE          PERCENT
 LAKE    INFLUX      SURFACE AREA   TIME STEP  CUMULATIVE    DISCREPANCY
   1   0.0000E+00     6.2500E+06   2.5798E-05 -1.2971E+01       0.000
   2   0.0000E+00     6.2500E+06   5.8758E-05 -1.8035E+01       0.000
 --------------------------------------------------------------------------------



            CUMULATIVE HYDROLOGIC BUDGET SUMMARIES FOR SIMULATED LAKES
     (ALL FLUID FLUXES ARE SUMS OF VOLUMES ADDED TO THE LAKE SINCE INITIAL TIME)
     ---------------------------------------------------------------------------
 LAKE       PRECIP       EVAP       RUNOFF
   1     8.3334E+07  7.3995E+07  0.0000E+00
   2     8.3334E+07  7.3995E+07  0.0000E+00

            GROUND WATER            SURFACE WATER
 LAKE    INFLOW     OUTFLOW      INFLOW     OUTFLOW
   1  2.6405E+08  1.5644E+06  1.1321E+09  1.4850E+09
   2  2.9542E+08  1.4259E+06  1.6544E+09  2.0704E+09

         WATER    CONNECTED LAKE   CHANGE       PERCENT
 LAKE     USE         INFLUX       IN VOL.    DISCREPANCY
   1   0.0000E+00   0.0000E+00  -8.1069E+07      0.000
   2   0.0000E+00   0.0000E+00  -1.1272E+08      0.000
 --------------------------------------------------------------------------------

 
 SOLVING FOR HEAD 
     4 ITERATIONS FOR TIME STEP 169 IN STRESS PERIOD    1

 HEAD/DRAWDOWN PRINTOUT FLAG = 0     TOTAL BUDGET PRINTOUT FLAG = 0
 CELL-BY-CELL FLOW TERM FLAG = 1

 OUTPUT FLAGS FOR ALL LAYERS ARE THE SAME:
   HEAD    DRAWDOWN  HEAD  DRAWDOWN
 PRINTOUT  PRINTOUT  SAVE    SAVE
 ----------------------------------
     0         0       0       0



 STREAM LISTING     PERIOD      1   STEP      169

 LAYER ROW COL. STREAM  RCH.  FLOW INTO     FLOW TO   FLOW OUT OF   OVRLND.     DIRECT     STREAM       STREAM     STREAM     STREAM   STREAMBED  STREAMBED
                SEG.NO.  NO.  STRM. RCH.    AQUIFER    STRM. RCH.    RUNOFF     PRECIP       ET          HEAD       DEPTH      WIDTH   CONDCTNC.   GRADIENT

   1    2    5     1     1    6.9120E+05 -8.0028E+04   7.7123E+05  0.000E+00  0.000E+00  0.000E+00  1.25330E+02  1.382E+00  5.000E+00  5.000E+03 -3.201E+01
   1    3    5     1     2    7.7123E+05 -5.6358E+04   8.2759E+05  0.000E+00  0.000E+00  0.000E+00  1.24303E+02  1.458E+00  5.000E+00  5.000E+03 -2.254E+01
   1    4    5     1     3    8.2759E+05 -5.3351E+04   8.8094E+05  0.000E+00  0.000E+00  0.000E+00  1.23258E+02  1.517E+00  5.000E+00  5.000E+03 -2.134E+01
   1    4    6     1     4    8.8094E+05 -4.3610E+04   9.2455E+05  0.000E+00  0.000E+00  0.000E+00  1.22206E+02  1.568E+00  5.000E+00  5.000E+03 -1.744E+01
   1    4    7     1     5    9.2455E+05 -2.1233E+04   9.4578E+05  0.000E+00  0.000E+00  0.000E+00  1.21412E+02  1.602E+00  5.000E+00  2.500E+03 -1.699E+01
   1    4    8     1     6    9.4578E+05 -3.4866E+04   9.8065E+05  0.000E+00  0.000E+00  0.000E+00  1.20751E+02  1.630E+00  5.000E+00  3.750E+03 -1.860E+01
   1    5    8     1     7    9.8065E+05 -3.6812E+04   1.0175E+06  0.000E+00  0.000E+00  0.000E+00  1.19822E+02  1.667E+00  5.000E+00  5.000E+03 -1.472E+01
   1    6    8     1     8    1.0175E+06 -2.5362E+04   1.0428E+06  0.000E+00  0.000E+00  0.000E+00  1.18749E+02  1.697E+00  5.000E+00  5.000E+03 -1.014E+01
   1   12    9     2     1    1.3469E+06 -2.7267E+04   1.3742E+06  0.000E+00  0.000E+00  0.000E+00  1.16632E+02  2.192E+00  5.000E+00  5.000E+03 -1.091E+01
   1   13    9     2     2    1.3742E+06 -4.2951E+04   1.4171E+06  0.000E+00  0.000E+00  0.000E+00  1.15845E+02  2.226E+00  5.000E+00  5.000E+03 -1.718E+01
   1   14   10     2     3    1.4171E+06 -2.3191E+04   1.4403E+06  0.000E+00  0.000E+00  0.000E+00  1.15237E+02  2.257E+00  5.000E+00  2.795E+03 -1.659E+01
   1   14   10     2     4    1.4403E+06 -2.4410E+04   1.4647E+06  0.000E+00  0.000E+00  0.000E+00  1.14800E+02  2.280E+00  5.000E+00  2.795E+03 -1.747E+01
   1   15   10     2     5    1.4647E+06 -4.1014E+04   1.5057E+06  0.000E+00  0.000E+00  0.000E+00  1.14191E+02  2.311E+00  5.000E+00  5.000E+03 -1.641E+01
   1   16   10     2     6    1.5057E+06 -2.7410E+04   1.5332E+06  0.000E+00  0.000E+00  0.000E+00  1.13403E+02  2.342E+00  5.000E+00  5.000E+03 -1.096E+01
   1   22   10     3     1    1.8633E+06 -2.7831E+04   1.8911E+06  0.000E+00  0.000E+00  0.000E+00  1.11504E+02  2.548E+00  5.000E+00  5.000E+03 -1.113E+01
   1   23   10     3     2    1.8911E+06 -4.0090E+04   1.9312E+06  0.000E+00  0.000E+00  0.000E+00  1.10704E+02  2.576E+00  5.000E+00  3.750E+03 -2.138E+01
   1   23   11     3     3    1.9312E+06 -2.3761E+04   1.9550E+06  0.000E+00  0.000E+00  0.000E+00  1.10139E+02  2.602E+00  5.000E+00  2.500E+03 -1.901E+01
   1   23   12     3     4    1.9550E+06 -4.7146E+04   2.0021E+06  0.000E+00  0.000E+00  0.000E+00  1.09458E+02  2.630E+00  5.000E+00  5.000E+03 -1.886E+01
   1   23   13     3     5    2.0021E+06 -5.0789E+04   2.0529E+06  0.000E+00  0.000E+00  0.000E+00  1.08551E+02  2.669E+00  5.000E+00  5.000E+03 -2.032E+01
   1   23   14     3     6    2.0529E+06 -5.4507E+04   2.1074E+06  0.000E+00  0.000E+00  0.000E+00  1.07646E+02  2.710E+00  5.000E+00  5.000E+03 -2.180E+01
   1   23   15     3     7    2.1074E+06 -6.1855E+04   2.1693E+06  0.000E+00  0.000E+00  0.000E+00  1.06746E+02  2.755E+00  5.000E+00  5.000E+03 -2.474E+01
   1   23   16     3     8    2.1693E+06 -9.0026E+04   2.2593E+06  0.000E+00  0.000E+00  0.000E+00  1.05858E+02  2.814E+00  5.000E+00  5.000E+03 -3.601E+01





     0  LAKE CELLS ARE DRY.

 PERIOD     1     TIME STEP   169     TIME STEP LENGTH  1.0129E+01
 PERIOD TIME  1.1596E+03     TOTAL SIMULATION TIME  1.1596E+03


                 HYDROLOGIC BUDGET SUMMARIES FOR SIMULATED LAKES
     (ALL FLUID FLUXES ARE VOLUMES ADDED TO THE LAKE DURING PRESENT TIME STEP)
     -------------------------------------------------------------------------
 LAKE    STAGE         VOLUME     VOL.CHANGE      PRECIP     EVAPORATION        RUNOFF
   1   117.0288     8.5179E+07    1.6000E+02    7.3437E+05    6.5207E+05    0.0000E+00
   2   111.9655     5.3533E+07    3.4800E+02    7.3437E+05    6.5207E+05    0.0000E+00

            GROUND WATER            SURFACE WATER        WATER
 LAKE    INFLOW     OUTFLOW      INFLOW     OUTFLOW       USE
   1  2.9981E+06  0.0000E+00  1.0563E+07  1.3643E+07  0.0000E+00
   2  3.2620E+06  0.0000E+00  1.5530E+07  1.8874E+07  0.0000E+00

      CONNECTED LAKE   TIME-STEP         STAGE-CHANGE          PERCENT
 LAKE    INFLUX      SURFACE AREA   TIME STEP  CUMULATIVE    DISCREPANCY
   1   0.0000E+00     6.2500E+06   2.5015E-05 -1.2971E+01       0.000
   2   0.0000E+00     6.2500E+06   5.5759E-05 -1.8035E+01       0.000
 --------------------------------------------------------------------------------



            CUMULATIVE HYDROLOGIC BUDGET SUMMARIES FOR SIMULATED LAKES
     (ALL FLUID FLUXES ARE SUMS OF VOLUMES ADDED TO THE LAKE SINCE INITIAL TIME)
     ---------------------------------------------------------------------------
 LAKE       PRECIP       EVAP       RUNOFF
   1     8.4069E+07  7.4647E+07  0.0000E+00
   2     8.4069E+07  7.4647E+07  0.0000E+00

            GROUND WATER            SURFACE WATER
 LAKE    INFLOW     OUTFLOW      INFLOW     OUTFLOW
   1  2.6705E+08  1.5644E+06  1.1426E+09  1.4986E+09
   2  2.9868E+08  1.4259E+06  1.6699E+09  2.0893E+09

         WATER    CONNECTED LAKE   CHANGE       PERCENT
 LAKE     USE         INFLUX       IN VOL.    DISCREPANCY
   1   0.0000E+00   0.0000E+00  -8.1069E+07      0.000
   2   0.0000E+00   0.0000E+00  -1.1272E+08      0.000
 --------------------------------------------------------------------------------

 
 SOLVING FOR HEAD 
     4 ITERATIONS FOR TIME STEP 170 IN STRESS PERIOD    1

 HEAD/DRAWDOWN PRINTOUT FLAG = 1     TOTAL BUDGET PRINTOUT FLAG = 1
 CELL-BY-CELL FLOW TERM FLAG = 1

 OUTPUT FLAGS FOR EACH LAYER:
          HEAD    DRAWDOWN  HEAD  DRAWDOWN
 LAYER  PRINTOUT  PRINTOUT  SAVE    SAVE
 -----------------------------------------
    1       0         0       0       0
    2       0         0       0       0
    3       0         0       0       0
    4       0         0       0       0
    5       1         0       0       0



 STREAM LISTING     PERIOD      1   STEP      170

 LAYER ROW COL. STREAM  RCH.  FLOW INTO     FLOW TO   FLOW OUT OF   OVRLND.     DIRECT     STREAM       STREAM     STREAM     STREAM   STREAMBED  STREAMBED
                SEG.NO.  NO.  STRM. RCH.    AQUIFER    STRM. RCH.    RUNOFF     PRECIP       ET          HEAD       DEPTH      WIDTH   CONDCTNC.   GRADIENT

   1    2    5     1     1    6.9120E+05 -8.0028E+04   7.7123E+05  0.000E+00  0.000E+00  0.000E+00  1.25330E+02  1.382E+00  5.000E+00  5.000E+03 -3.201E+01
   1    3    5     1     2    7.7123E+05 -5.6358E+04   8.2759E+05  0.000E+00  0.000E+00  0.000E+00  1.24303E+02  1.458E+00  5.000E+00  5.000E+03 -2.254E+01
   1    4    5     1     3    8.2759E+05 -5.3352E+04   8.8094E+05  0.000E+00  0.000E+00  0.000E+00  1.23258E+02  1.517E+00  5.000E+00  5.000E+03 -2.134E+01
   1    4    6     1     4    8.8094E+05 -4.3611E+04   9.2455E+05  0.000E+00  0.000E+00  0.000E+00  1.22206E+02  1.568E+00  5.000E+00  5.000E+03 -1.744E+01
   1    4    7     1     5    9.2455E+05 -2.1233E+04   9.4578E+05  0.000E+00  0.000E+00  0.000E+00  1.21412E+02  1.602E+00  5.000E+00  2.500E+03 -1.699E+01
   1    4    8     1     6    9.4578E+05 -3.4867E+04   9.8065E+05  0.000E+00  0.000E+00  0.000E+00  1.20751E+02  1.630E+00  5.000E+00  3.750E+03 -1.860E+01
   1    5    8     1     7    9.8065E+05 -3.6813E+04   1.0175E+06  0.000E+00  0.000E+00  0.000E+00  1.19822E+02  1.667E+00  5.000E+00  5.000E+03 -1.473E+01
   1    6    8     1     8    1.0175E+06 -2.5363E+04   1.0428E+06  0.000E+00  0.000E+00  0.000E+00  1.18749E+02  1.697E+00  5.000E+00  5.000E+03 -1.015E+01
   1   12    9     2     1    1.3469E+06 -2.7269E+04   1.3742E+06  0.000E+00  0.000E+00  0.000E+00  1.16632E+02  2.192E+00  5.000E+00  5.000E+03 -1.091E+01
   1   13    9     2     2    1.3742E+06 -4.2955E+04   1.4172E+06  0.000E+00  0.000E+00  0.000E+00  1.15845E+02  2.226E+00  5.000E+00  5.000E+03 -1.718E+01
   1   14   10     2     3    1.4172E+06 -2.3193E+04   1.4404E+06  0.000E+00  0.000E+00  0.000E+00  1.15237E+02  2.257E+00  5.000E+00  2.795E+03 -1.660E+01
   1   14   10     2     4    1.4404E+06 -2.4412E+04   1.4648E+06  0.000E+00  0.000E+00  0.000E+00  1.14801E+02  2.280E+00  5.000E+00  2.795E+03 -1.747E+01
   1   15   10     2     5    1.4648E+06 -4.1018E+04   1.5058E+06  0.000E+00  0.000E+00  0.000E+00  1.14192E+02  2.311E+00  5.000E+00  5.000E+03 -1.641E+01
   1   16   10     2     6    1.5058E+06 -2.7412E+04   1.5332E+06  0.000E+00  0.000E+00  0.000E+00  1.13403E+02  2.342E+00  5.000E+00  5.000E+03 -1.096E+01
   1   22   10     3     1    1.8633E+06 -2.7832E+04   1.8912E+06  0.000E+00  0.000E+00  0.000E+00  1.11504E+02  2.548E+00  5.000E+00  5.000E+03 -1.113E+01
   1   23   10     3     2    1.8912E+06 -4.0091E+04   1.9313E+06  0.000E+00  0.000E+00  0.000E+00  1.10704E+02  2.576E+00  5.000E+00  3.750E+03 -2.138E+01
   1   23   11     3     3    1.9313E+06 -2.3761E+04   1.9550E+06  0.000E+00  0.000E+00  0.000E+00  1.10139E+02  2.602E+00  5.000E+00  2.500E+03 -1.901E+01
   1   23   12     3     4    1.9550E+06 -4.7147E+04   2.0022E+06  0.000E+00  0.000E+00  0.000E+00  1.09458E+02  2.630E+00  5.000E+00  5.000E+03 -1.886E+01
   1   23   13     3     5    2.0022E+06 -5.0790E+04   2.0530E+06  0.000E+00  0.000E+00  0.000E+00  1.08551E+02  2.669E+00  5.000E+00  5.000E+03 -2.032E+01
   1   23   14     3     6    2.0530E+06 -5.4508E+04   2.1075E+06  0.000E+00  0.000E+00  0.000E+00  1.07646E+02  2.710E+00  5.000E+00  5.000E+03 -2.180E+01
   1   23   15     3     7    2.1075E+06 -6.1855E+04   2.1693E+06  0.000E+00  0.000E+00  0.000E+00  1.06746E+02  2.755E+00  5.000E+00  5.000E+03 -2.474E+01
   1   23   16     3     8    2.1693E+06 -9.0026E+04   2.2594E+06  0.000E+00  0.000E+00  0.000E+00  1.05858E+02  2.814E+00  5.000E+00  5.000E+03 -3.601E+01





     0  LAKE CELLS ARE DRY.

 PERIOD     1     TIME STEP   170     TIME STEP LENGTH  1.0180E+01
 PERIOD TIME  1.1697E+03     TOTAL SIMULATION TIME  1.1697E+03


                 HYDROLOGIC BUDGET SUMMARIES FOR SIMULATED LAKES
     (ALL FLUID FLUXES ARE VOLUMES ADDED TO THE LAKE DURING PRESENT TIME STEP)
     -------------------------------------------------------------------------
 LAKE    STAGE         VOLUME     VOL.CHANGE      PRECIP     EVAPORATION        RUNOFF
   1   117.0288     8.5179E+07    1.4400E+02    7.3804E+05    6.5533E+05    0.0000E+00
   2   111.9655     5.3533E+07    3.2800E+02    7.3804E+05    6.5533E+05    0.0000E+00

            GROUND WATER            SURFACE WATER        WATER
 LAKE    INFLOW     OUTFLOW      INFLOW     OUTFLOW       USE
   1  3.0133E+06  0.0000E+00  1.0616E+07  1.3712E+07  0.0000E+00
   2  3.2785E+06  0.0000E+00  1.5608E+07  1.8969E+07  0.0000E+00

      CONNECTED LAKE   TIME-STEP         STAGE-CHANGE          PERCENT
 LAKE    INFLUX      SURFACE AREA   TIME STEP  CUMULATIVE    DISCREPANCY
   1   0.0000E+00     6.2500E+06   2.3461E-05 -1.2971E+01       0.000
   2   0.0000E+00     6.2500E+06   5.2679E-05 -1.8034E+01       0.000
 --------------------------------------------------------------------------------



            CUMULATIVE HYDROLOGIC BUDGET SUMMARIES FOR SIMULATED LAKES
     (ALL FLUID FLUXES ARE SUMS OF VOLUMES ADDED TO THE LAKE SINCE INITIAL TIME)
     ---------------------------------------------------------------------------
 LAKE       PRECIP       EVAP       RUNOFF
   1     8.4807E+07  7.5303E+07  0.0000E+00
   2     8.4807E+07  7.5303E+07  0.0000E+00

            GROUND WATER            SURFACE WATER
 LAKE    INFLOW     OUTFLOW      INFLOW     OUTFLOW
   1  2.7006E+08  1.5644E+06  1.1533E+09  1.5123E+09
   2  3.0196E+08  1.4259E+06  1.6855E+09  2.1083E+09

         WATER    CONNECTED LAKE   CHANGE       PERCENT
 LAKE     USE         INFLUX       IN VOL.    DISCREPANCY
   1   0.0000E+00   0.0000E+00  -8.1069E+07      0.000
   2   0.0000E+00   0.0000E+00  -1.1271E+08      0.000
 --------------------------------------------------------------------------------

1
              HEAD IN LAYER   5 AT END OF TIME STEP 170 IN STRESS PERIOD    1
  ---------------------------------------------------------------------------

          1      2      3      4      5      6      7      8      9     10
 .........................................................................
   1   160.0  158.9  157.3  155.8  154.2  152.7  151.5  150.8  150.0  149.2
   2   160.0  158.2  155.3  151.1  141.4  146.7  147.2  147.2  147.0  146.6
   3   160.0  157.6  153.6  147.6  135.6  139.9  140.8  141.3  142.1  142.8
   4   160.0  157.3  153.0  146.7  133.9  130.9  129.9  130.1  135.4  138.2
   5   160.0  157.3  153.3  148.3  141.8  136.2  131.3  127.2  131.5  134.5
   6   160.0  157.4  153.6  149.3  143.7  136.2  128.4  123.8  126.1  128.1
   7   160.0  157.5  153.7  149.5  143.7  133.6  117.9  117.3  117.3  117.4
   8   160.0  157.5  153.8  149.6  143.7  132.8  117.5  117.1  117.0  117.1
   9   160.0  157.5  153.9  149.8  143.8  132.8  117.5  117.0  117.0  117.0
  10   160.0  157.6  154.0  149.9  144.1  133.3  117.6  117.1  117.0  117.1
  11   160.0  157.6  154.1  150.2  144.7  134.7  118.0  117.4  117.2  117.3
  12   160.0  157.6  154.3  150.6  145.8  138.7  130.8  126.5  122.1  125.0
  13   160.0  157.7  154.4  151.0  147.0  141.5  135.8  131.0  124.5  127.8
  14   160.0  157.7  154.5  151.2  147.3  142.4  137.6  133.6  128.9  123.6
  15   160.0  157.7  154.4  151.0  146.8  141.4  136.2  132.3  127.8  122.4
  16   160.0  157.6  154.2  150.5  145.5  137.8  129.5  125.5  122.3  118.9
  17   160.0  157.6  154.1  150.1  144.2  132.7  113.1  112.4  112.3  112.2
  18   160.0  157.6  154.1  149.9  143.7  131.1  112.6  112.0  112.0  112.0
  19   160.0  157.6  154.1  149.9  143.6  130.7  112.6  112.0  112.0  112.0
  20   160.0  157.6  154.1  150.1  143.8  131.3  112.6  112.0  112.0  112.0
  21   160.0  157.7  154.3  150.3  144.5  133.1  113.2  112.4  112.3  112.2
  22   160.0  157.7  154.5  150.9  146.2  138.7  130.3  126.1  122.1  117.1
  23   160.0  157.9  154.9  151.9  148.3  143.6  138.8  135.1  129.8  121.4
  24   160.0  158.0  155.4  152.8  150.0  146.8  143.9  141.8  139.5  137.3
  25   160.0  158.2  155.9  153.7  151.5  149.1  147.2  145.9  144.6  143.3
  26   160.0  158.5  156.6  154.8  153.0  151.2  149.8  148.8  147.9  147.0
  27   160.0  158.9  157.3  155.8  154.2  152.7  151.5  150.8  150.0  149.2
1
              HEAD IN LAYER   5 AT END OF TIME STEP 170 IN STRESS PERIOD    1
  ---------------------------------------------------------------------------

         11     12     13     14     15     16     17
 ....................................................
   1   148.5  147.3  145.8  144.2  142.7  141.1  140.0
   2   146.3  145.6  144.4  143.1  141.8  140.5  140.0
   3   143.1  143.3  142.8  141.9  141.0  140.1  140.0
   4   139.8  141.1  141.4  141.1  140.5  139.9  140.0
   5   136.5  138.7  140.0  140.3  140.0  139.8  140.0
   6   130.4  135.2  138.4  139.5  139.7  139.7  140.0
   7   117.9  131.3  137.2  139.0  139.5  139.6  140.0
   8   117.5  129.9  136.6  138.8  139.4  139.6  140.0
   9   117.4  129.5  136.3  138.7  139.3  139.6  140.0
  10   117.4  129.6  136.3  138.6  139.3  139.5  140.0
  11   117.8  130.5  136.6  138.7  139.3  139.5  140.0
  12   127.9  133.4  137.3  138.8  139.3  139.5  140.0
  13   131.0  135.0  137.9  139.0  139.4  139.5  140.0
  14   129.3  134.7  137.7  138.9  139.3  139.5  140.0
  15   127.7  133.5  137.1  138.6  139.1  139.4  140.0
  16   123.5  130.8  135.9  137.9  138.8  139.3  140.0
  17   112.8  127.1  134.5  137.2  138.3  139.1  140.0
  18   112.4  125.7  133.7  136.6  137.9  138.9  140.0
  19   112.4  124.8  132.9  135.9  137.2  138.6  140.0
  20   112.4  124.3  132.0  134.8  136.3  138.1  140.0
  21   112.6  124.0  130.8  133.4  134.9  137.2  140.0
  22   119.7  124.1  128.0  129.9  131.5  134.8  140.0
  23   119.7  118.9  118.7  118.6  119.1  123.9  140.0
  24   135.7  134.1  132.9  132.2  132.5  135.2  140.0
  25   142.2  140.8  139.3  138.3  137.8  138.5  140.0
  26   146.1  144.9  143.4  142.0  140.9  140.1  140.0
  27   148.5  147.3  145.8  144.2  142.7  141.1  140.0
1
  VOLUMETRIC BUDGET FOR ENTIRE MODEL AT END OF TIME STEP170 IN STRESS PERIOD   1
  ------------------------------------------------------------------------------

     CUMULATIVE VOLUMES      L**3       RATES FOR THIS TIME STEP      L**3/T
     ------------------                 ------------------------

           IN:                                      IN:
           ---                                      ---
             STORAGE =     2934567.7500               STORAGE =           0.0000
       CONSTANT HEAD =  1128957184.0000         CONSTANT HEAD =      540776.5625
                  ET =           0.0000                    ET =           0.0000
            RECHARGE =  3222657280.0000              RECHARGE =     2755000.0000
     SPECIFIED FLOWS =           0.0000       SPECIFIED FLOWS =           0.0000
      STREAM LEAKAGE =     3694574.2500        STREAM LEAKAGE =           0.0000
       LAKE  SEEPAGE =     2990331.7500         LAKE  SEEPAGE =           0.0000

            TOTAL IN =  4361233920.0000              TOTAL IN =     3295776.5000

          OUT:                                     OUT:
          ----                                     ----
             STORAGE =  1271558656.0000               STORAGE =        2821.5090
       CONSTANT HEAD =     2044991.6250         CONSTANT HEAD =        2771.0239
                  ET =  1574812672.0000                    ET =     1738200.0000
            RECHARGE =           0.0000              RECHARGE =           0.0000
     SPECIFIED FLOWS =           0.0000       SPECIFIED FLOWS =           0.0000
      STREAM LEAKAGE =   940787072.0000        STREAM LEAKAGE =      933895.9375
       LAKE  SEEPAGE =   572023168.0000         LAKE  SEEPAGE =      618057.8750

           TOTAL OUT =  4361226752.0000             TOTAL OUT =     3295746.2500

            IN - OUT =        7168.0000              IN - OUT =          30.2500

 PERCENT DISCREPANCY =           0.00     PERCENT DISCREPANCY =           0.00






          TIME SUMMARY AT END OF TIME STEP 170 IN STRESS PERIOD    1
                    SECONDS     MINUTES      HOURS       DAYS        YEARS
                    -----------------------------------------------------------
   TIME STEP LENGTH 8.79545E+05  14659.      244.32      10.180     2.78711E-02
 STRESS PERIOD TIME 1.01066E+08 1.68444E+06  28074.      1169.7      3.2026    
         TOTAL TIME 1.01066E+08 1.68444E+06  28074.      1169.7      3.2026    
1
 
 SOLVING FOR HEAD 
     4 ITERATIONS FOR TIME STEP 171 IN STRESS PERIOD    1

 HEAD/DRAWDOWN PRINTOUT FLAG = 0     TOTAL BUDGET PRINTOUT FLAG = 0
 CELL-BY-CELL FLOW TERM FLAG = 1

 OUTPUT FLAGS FOR ALL LAYERS ARE THE SAME:
   HEAD    DRAWDOWN  HEAD  DRAWDOWN
 PRINTOUT  PRINTOUT  SAVE    SAVE
 ----------------------------------
     0         0       0       0



 STREAM LISTING     PERIOD      1   STEP      171

 LAYER ROW COL. STREAM  RCH.  FLOW INTO     FLOW TO   FLOW OUT OF   OVRLND.     DIRECT     STREAM       STREAM     STREAM     STREAM   STREAMBED  STREAMBED
                SEG.NO.  NO.  STRM. RCH.    AQUIFER    STRM. RCH.    RUNOFF     PRECIP       ET          HEAD       DEPTH      WIDTH   CONDCTNC.   GRADIENT

   1    2    5     1     1    6.9120E+05 -8.0028E+04   7.7123E+05  0.000E+00  0.000E+00  0.000E+00  1.25330E+02  1.382E+00  5.000E+00  5.000E+03 -3.201E+01
   1    3    5     1     2    7.7123E+05 -5.6359E+04   8.2759E+05  0.000E+00  0.000E+00  0.000E+00  1.24303E+02  1.458E+00  5.000E+00  5.000E+03 -2.254E+01
   1    4    5     1     3    8.2759E+05 -5.3353E+04   8.8094E+05  0.000E+00  0.000E+00  0.000E+00  1.23258E+02  1.517E+00  5.000E+00  5.000E+03 -2.134E+01
   1    4    6     1     4    8.8094E+05 -4.3612E+04   9.2455E+05  0.000E+00  0.000E+00  0.000E+00  1.22206E+02  1.568E+00  5.000E+00  5.000E+03 -1.744E+01
   1    4    7     1     5    9.2455E+05 -2.1234E+04   9.4579E+05  0.000E+00  0.000E+00  0.000E+00  1.21412E+02  1.602E+00  5.000E+00  2.500E+03 -1.699E+01
   1    4    8     1     6    9.4579E+05 -3.4868E+04   9.8065E+05  0.000E+00  0.000E+00  0.000E+00  1.20751E+02  1.630E+00  5.000E+00  3.750E+03 -1.860E+01
   1    5    8     1     7    9.8065E+05 -3.6814E+04   1.0175E+06  0.000E+00  0.000E+00  0.000E+00  1.19822E+02  1.667E+00  5.000E+00  5.000E+03 -1.473E+01
   1    6    8     1     8    1.0175E+06 -2.5364E+04   1.0428E+06  0.000E+00  0.000E+00  0.000E+00  1.18749E+02  1.697E+00  5.000E+00  5.000E+03 -1.015E+01
   1   12    9     2     1    1.3470E+06 -2.7271E+04   1.3742E+06  0.000E+00  0.000E+00  0.000E+00  1.16632E+02  2.192E+00  5.000E+00  5.000E+03 -1.091E+01
   1   13    9     2     2    1.3742E+06 -4.2958E+04   1.4172E+06  0.000E+00  0.000E+00  0.000E+00  1.15845E+02  2.226E+00  5.000E+00  5.000E+03 -1.718E+01
   1   14   10     2     3    1.4172E+06 -2.3195E+04   1.4404E+06  0.000E+00  0.000E+00  0.000E+00  1.15237E+02  2.257E+00  5.000E+00  2.795E+03 -1.660E+01
   1   14   10     2     4    1.4404E+06 -2.4414E+04   1.4648E+06  0.000E+00  0.000E+00  0.000E+00  1.14801E+02  2.280E+00  5.000E+00  2.795E+03 -1.747E+01
   1   15   10     2     5    1.4648E+06 -4.1022E+04   1.5058E+06  0.000E+00  0.000E+00  0.000E+00  1.14192E+02  2.311E+00  5.000E+00  5.000E+03 -1.641E+01
   1   16   10     2     6    1.5058E+06 -2.7414E+04   1.5332E+06  0.000E+00  0.000E+00  0.000E+00  1.13403E+02  2.342E+00  5.000E+00  5.000E+03 -1.097E+01
   1   22   10     3     1    1.8634E+06 -2.7833E+04   1.8912E+06  0.000E+00  0.000E+00  0.000E+00  1.11504E+02  2.548E+00  5.000E+00  5.000E+03 -1.113E+01
   1   23   10     3     2    1.8912E+06 -4.0092E+04   1.9313E+06  0.000E+00  0.000E+00  0.000E+00  1.10704E+02  2.576E+00  5.000E+00  3.750E+03 -2.138E+01
   1   23   11     3     3    1.9313E+06 -2.3762E+04   1.9551E+06  0.000E+00  0.000E+00  0.000E+00  1.10139E+02  2.602E+00  5.000E+00  2.500E+03 -1.901E+01
   1   23   12     3     4    1.9551E+06 -4.7148E+04   2.0022E+06  0.000E+00  0.000E+00  0.000E+00  1.09458E+02  2.630E+00  5.000E+00  5.000E+03 -1.886E+01
   1   23   13     3     5    2.0022E+06 -5.0791E+04   2.0530E+06  0.000E+00  0.000E+00  0.000E+00  1.08551E+02  2.669E+00  5.000E+00  5.000E+03 -2.032E+01
   1   23   14     3     6    2.0530E+06 -5.4509E+04   2.1075E+06  0.000E+00  0.000E+00  0.000E+00  1.07646E+02  2.710E+00  5.000E+00  5.000E+03 -2.180E+01
   1   23   15     3     7    2.1075E+06 -6.1856E+04   2.1694E+06  0.000E+00  0.000E+00  0.000E+00  1.06746E+02  2.755E+00  5.000E+00  5.000E+03 -2.474E+01
   1   23   16     3     8    2.1694E+06 -9.0026E+04   2.2594E+06  0.000E+00  0.000E+00  0.000E+00  1.05858E+02  2.814E+00  5.000E+00  5.000E+03 -3.601E+01





     0  LAKE CELLS ARE DRY.

 PERIOD     1     TIME STEP   171     TIME STEP LENGTH  1.0231E+01
 PERIOD TIME  1.1800E+03     TOTAL SIMULATION TIME  1.1800E+03


                 HYDROLOGIC BUDGET SUMMARIES FOR SIMULATED LAKES
     (ALL FLUID FLUXES ARE VOLUMES ADDED TO THE LAKE DURING PRESENT TIME STEP)
     -------------------------------------------------------------------------
 LAKE    STAGE         VOLUME     VOL.CHANGE      PRECIP     EVAPORATION        RUNOFF
   1   117.0289     8.5180E+07    1.3600E+02    7.4173E+05    6.5861E+05    0.0000E+00
   2   111.9656     5.3534E+07    3.1200E+02    7.4173E+05    6.5861E+05    0.0000E+00

            GROUND WATER            SURFACE WATER        WATER
 LAKE    INFLOW     OUTFLOW      INFLOW     OUTFLOW       USE
   1  3.0285E+06  0.0000E+00  1.0669E+07  1.3781E+07  0.0000E+00
   2  3.2951E+06  0.0000E+00  1.5686E+07  1.9064E+07  0.0000E+00

      CONNECTED LAKE   TIME-STEP         STAGE-CHANGE          PERCENT
 LAKE    INFLUX      SURFACE AREA   TIME STEP  CUMULATIVE    DISCREPANCY
   1   0.0000E+00     6.2500E+06   2.1992E-05 -1.2971E+01       0.000
   2   0.0000E+00     6.2500E+06   4.9617E-05 -1.8034E+01       0.000
 --------------------------------------------------------------------------------



            CUMULATIVE HYDROLOGIC BUDGET SUMMARIES FOR SIMULATED LAKES
     (ALL FLUID FLUXES ARE SUMS OF VOLUMES ADDED TO THE LAKE SINCE INITIAL TIME)
     ---------------------------------------------------------------------------
 LAKE       PRECIP       EVAP       RUNOFF
   1     8.5549E+07  7.5961E+07  0.0000E+00
   2     8.5549E+07  7.5961E+07  0.0000E+00

            GROUND WATER            SURFACE WATER
 LAKE    INFLOW     OUTFLOW      INFLOW     OUTFLOW
   1  2.7309E+08  1.5644E+06  1.1639E+09  1.5261E+09
   2  3.0525E+08  1.4259E+06  1.7012E+09  2.1274E+09

         WATER    CONNECTED LAKE   CHANGE       PERCENT
 LAKE     USE         INFLUX       IN VOL.    DISCREPANCY
   1   0.0000E+00   0.0000E+00  -8.1069E+07      0.000
   2   0.0000E+00   0.0000E+00  -1.1271E+08      0.000
 --------------------------------------------------------------------------------

 
 SOLVING FOR HEAD 
     4 ITERATIONS FOR TIME STEP 172 IN STRESS PERIOD    1

 HEAD/DRAWDOWN PRINTOUT FLAG = 0     TOTAL BUDGET PRINTOUT FLAG = 0
 CELL-BY-CELL FLOW TERM FLAG = 1

 OUTPUT FLAGS FOR ALL LAYERS ARE THE SAME:
   HEAD    DRAWDOWN  HEAD  DRAWDOWN
 PRINTOUT  PRINTOUT  SAVE    SAVE
 ----------------------------------
     0         0       0       0



 STREAM LISTING     PERIOD      1   STEP      172

 LAYER ROW COL. STREAM  RCH.  FLOW INTO     FLOW TO   FLOW OUT OF   OVRLND.     DIRECT     STREAM       STREAM     STREAM     STREAM   STREAMBED  STREAMBED
                SEG.NO.  NO.  STRM. RCH.    AQUIFER    STRM. RCH.    RUNOFF     PRECIP       ET          HEAD       DEPTH      WIDTH   CONDCTNC.   GRADIENT

   1    2    5     1     1    6.9120E+05 -8.0028E+04   7.7123E+05  0.000E+00  0.000E+00  0.000E+00  1.25330E+02  1.382E+00  5.000E+00  5.000E+03 -3.201E+01
   1    3    5     1     2    7.7123E+05 -5.6359E+04   8.2759E+05  0.000E+00  0.000E+00  0.000E+00  1.24303E+02  1.458E+00  5.000E+00  5.000E+03 -2.254E+01
   1    4    5     1     3    8.2759E+05 -5.3354E+04   8.8094E+05  0.000E+00  0.000E+00  0.000E+00  1.23258E+02  1.517E+00  5.000E+00  5.000E+03 -2.134E+01
   1    4    6     1     4    8.8094E+05 -4.3613E+04   9.2455E+05  0.000E+00  0.000E+00  0.000E+00  1.22206E+02  1.568E+00  5.000E+00  5.000E+03 -1.745E+01
   1    4    7     1     5    9.2455E+05 -2.1234E+04   9.4579E+05  0.000E+00  0.000E+00  0.000E+00  1.21412E+02  1.602E+00  5.000E+00  2.500E+03 -1.699E+01
   1    4    8     1     6    9.4579E+05 -3.4868E+04   9.8066E+05  0.000E+00  0.000E+00  0.000E+00  1.20751E+02  1.630E+00  5.000E+00  3.750E+03 -1.860E+01
   1    5    8     1     7    9.8066E+05 -3.6815E+04   1.0175E+06  0.000E+00  0.000E+00  0.000E+00  1.19822E+02  1.667E+00  5.000E+00  5.000E+03 -1.473E+01
   1    6    8     1     8    1.0175E+06 -2.5364E+04   1.0428E+06  0.000E+00  0.000E+00  0.000E+00  1.18749E+02  1.697E+00  5.000E+00  5.000E+03 -1.015E+01
   1   12    9     2     1    1.3470E+06 -2.7273E+04   1.3743E+06  0.000E+00  0.000E+00  0.000E+00  1.16632E+02  2.192E+00  5.000E+00  5.000E+03 -1.091E+01
   1   13    9     2     2    1.3743E+06 -4.2962E+04   1.4172E+06  0.000E+00  0.000E+00  0.000E+00  1.15845E+02  2.226E+00  5.000E+00  5.000E+03 -1.718E+01
   1   14   10     2     3    1.4172E+06 -2.3197E+04   1.4404E+06  0.000E+00  0.000E+00  0.000E+00  1.15237E+02  2.257E+00  5.000E+00  2.795E+03 -1.660E+01
   1   14   10     2     4    1.4404E+06 -2.4416E+04   1.4648E+06  0.000E+00  0.000E+00  0.000E+00  1.14801E+02  2.280E+00  5.000E+00  2.795E+03 -1.747E+01
   1   15   10     2     5    1.4648E+06 -4.1025E+04   1.5059E+06  0.000E+00  0.000E+00  0.000E+00  1.14192E+02  2.311E+00  5.000E+00  5.000E+03 -1.641E+01
   1   16   10     2     6    1.5059E+06 -2.7416E+04   1.5333E+06  0.000E+00  0.000E+00  0.000E+00  1.13403E+02  2.342E+00  5.000E+00  5.000E+03 -1.097E+01
   1   22   10     3     1    1.8635E+06 -2.7834E+04   1.8913E+06  0.000E+00  0.000E+00  0.000E+00  1.11504E+02  2.548E+00  5.000E+00  5.000E+03 -1.113E+01
   1   23   10     3     2    1.8913E+06 -4.0093E+04   1.9314E+06  0.000E+00  0.000E+00  0.000E+00  1.10704E+02  2.576E+00  5.000E+00  3.750E+03 -2.138E+01
   1   23   11     3     3    1.9314E+06 -2.3763E+04   1.9551E+06  0.000E+00  0.000E+00  0.000E+00  1.10139E+02  2.602E+00  5.000E+00  2.500E+03 -1.901E+01
   1   23   12     3     4    1.9551E+06 -4.7149E+04   2.0023E+06  0.000E+00  0.000E+00  0.000E+00  1.09458E+02  2.630E+00  5.000E+00  5.000E+03 -1.886E+01
   1   23   13     3     5    2.0023E+06 -5.0792E+04   2.0531E+06  0.000E+00  0.000E+00  0.000E+00  1.08551E+02  2.669E+00  5.000E+00  5.000E+03 -2.032E+01
   1   23   14     3     6    2.0531E+06 -5.4510E+04   2.1076E+06  0.000E+00  0.000E+00  0.000E+00  1.07646E+02  2.710E+00  5.000E+00  5.000E+03 -2.180E+01
   1   23   15     3     7    2.1076E+06 -6.1856E+04   2.1695E+06  0.000E+00  0.000E+00  0.000E+00  1.06746E+02  2.756E+00  5.000E+00  5.000E+03 -2.474E+01
   1   23   16     3     8    2.1695E+06 -9.0027E+04   2.2595E+06  0.000E+00  0.000E+00  0.000E+00  1.05858E+02  2.814E+00  5.000E+00  5.000E+03 -3.601E+01





     0  LAKE CELLS ARE DRY.

 PERIOD     1     TIME STEP   172     TIME STEP LENGTH  1.0282E+01
 PERIOD TIME  1.1903E+03     TOTAL SIMULATION TIME  1.1903E+03


                 HYDROLOGIC BUDGET SUMMARIES FOR SIMULATED LAKES
     (ALL FLUID FLUXES ARE VOLUMES ADDED TO THE LAKE DURING PRESENT TIME STEP)
     -------------------------------------------------------------------------
 LAKE    STAGE         VOLUME     VOL.CHANGE      PRECIP     EVAPORATION        RUNOFF
   1   117.0289     8.5180E+07    1.2000E+02    7.4544E+05    6.6190E+05    0.0000E+00
   2   111.9656     5.3534E+07    2.6800E+02    7.4544E+05    6.6190E+05    0.0000E+00

            GROUND WATER            SURFACE WATER        WATER
 LAKE    INFLOW     OUTFLOW      INFLOW     OUTFLOW       USE
   1  3.0438E+06  0.0000E+00  1.0722E+07  1.3850E+07  0.0000E+00
   2  3.3117E+06  0.0000E+00  1.5765E+07  1.9160E+07  0.0000E+00

      CONNECTED LAKE   TIME-STEP         STAGE-CHANGE          PERCENT
 LAKE    INFLUX      SURFACE AREA   TIME STEP  CUMULATIVE    DISCREPANCY
   1   0.0000E+00     6.2500E+06   1.8966E-05 -1.2971E+01       0.000
   2   0.0000E+00     6.2500E+06   4.2616E-05 -1.8034E+01       0.000
 --------------------------------------------------------------------------------



            CUMULATIVE HYDROLOGIC BUDGET SUMMARIES FOR SIMULATED LAKES
     (ALL FLUID FLUXES ARE SUMS OF VOLUMES ADDED TO THE LAKE SINCE INITIAL TIME)
     ---------------------------------------------------------------------------
 LAKE       PRECIP       EVAP       RUNOFF
   1     8.6294E+07  7.6623E+07  0.0000E+00
   2     8.6294E+07  7.6623E+07  0.0000E+00

            GROUND WATER            SURFACE WATER
 LAKE    INFLOW     OUTFLOW      INFLOW     OUTFLOW
   1  2.7614E+08  1.5644E+06  1.1747E+09  1.5400E+09
   2  3.0857E+08  1.4259E+06  1.7170E+09  2.1465E+09

         WATER    CONNECTED LAKE   CHANGE       PERCENT
 LAKE     USE         INFLUX       IN VOL.    DISCREPANCY
   1   0.0000E+00   0.0000E+00  -8.1069E+07      0.000
   2   0.0000E+00   0.0000E+00  -1.1271E+08      0.000
 --------------------------------------------------------------------------------

 
 SOLVING FOR HEAD 
     4 ITERATIONS FOR TIME STEP 173 IN STRESS PERIOD    1

 HEAD/DRAWDOWN PRINTOUT FLAG = 0     TOTAL BUDGET PRINTOUT FLAG = 0
 CELL-BY-CELL FLOW TERM FLAG = 1

 OUTPUT FLAGS FOR ALL LAYERS ARE THE SAME:
   HEAD    DRAWDOWN  HEAD  DRAWDOWN
 PRINTOUT  PRINTOUT  SAVE    SAVE
 ----------------------------------
     0         0       0       0



 STREAM LISTING     PERIOD      1   STEP      173

 LAYER ROW COL. STREAM  RCH.  FLOW INTO     FLOW TO   FLOW OUT OF   OVRLND.     DIRECT     STREAM       STREAM     STREAM     STREAM   STREAMBED  STREAMBED
                SEG.NO.  NO.  STRM. RCH.    AQUIFER    STRM. RCH.    RUNOFF     PRECIP       ET          HEAD       DEPTH      WIDTH   CONDCTNC.   GRADIENT

   1    2    5     1     1    6.9120E+05 -8.0028E+04   7.7123E+05  0.000E+00  0.000E+00  0.000E+00  1.25330E+02  1.382E+00  5.000E+00  5.000E+03 -3.201E+01
   1    3    5     1     2    7.7123E+05 -5.6359E+04   8.2759E+05  0.000E+00  0.000E+00  0.000E+00  1.24303E+02  1.458E+00  5.000E+00  5.000E+03 -2.254E+01
   1    4    5     1     3    8.2759E+05 -5.3355E+04   8.8094E+05  0.000E+00  0.000E+00  0.000E+00  1.23258E+02  1.517E+00  5.000E+00  5.000E+03 -2.134E+01
   1    4    6     1     4    8.8094E+05 -4.3613E+04   9.2456E+05  0.000E+00  0.000E+00  0.000E+00  1.22206E+02  1.568E+00  5.000E+00  5.000E+03 -1.745E+01
   1    4    7     1     5    9.2456E+05 -2.1234E+04   9.4579E+05  0.000E+00  0.000E+00  0.000E+00  1.21412E+02  1.602E+00  5.000E+00  2.500E+03 -1.699E+01
   1    4    8     1     6    9.4579E+05 -3.4869E+04   9.8066E+05  0.000E+00  0.000E+00  0.000E+00  1.20751E+02  1.630E+00  5.000E+00  3.750E+03 -1.860E+01
   1    5    8     1     7    9.8066E+05 -3.6816E+04   1.0175E+06  0.000E+00  0.000E+00  0.000E+00  1.19822E+02  1.667E+00  5.000E+00  5.000E+03 -1.473E+01
   1    6    8     1     8    1.0175E+06 -2.5365E+04   1.0428E+06  0.000E+00  0.000E+00  0.000E+00  1.18749E+02  1.697E+00  5.000E+00  5.000E+03 -1.015E+01
   1   12    9     2     1    1.3470E+06 -2.7275E+04   1.3743E+06  0.000E+00  0.000E+00  0.000E+00  1.16632E+02  2.192E+00  5.000E+00  5.000E+03 -1.091E+01
   1   13    9     2     2    1.3743E+06 -4.2965E+04   1.4172E+06  0.000E+00  0.000E+00  0.000E+00  1.15845E+02  2.226E+00  5.000E+00  5.000E+03 -1.719E+01
   1   14   10     2     3    1.4172E+06 -2.3199E+04   1.4404E+06  0.000E+00  0.000E+00  0.000E+00  1.15237E+02  2.257E+00  5.000E+00  2.795E+03 -1.660E+01
   1   14   10     2     4    1.4404E+06 -2.4418E+04   1.4649E+06  0.000E+00  0.000E+00  0.000E+00  1.14801E+02  2.280E+00  5.000E+00  2.795E+03 -1.747E+01
   1   15   10     2     5    1.4649E+06 -4.1028E+04   1.5059E+06  0.000E+00  0.000E+00  0.000E+00  1.14192E+02  2.311E+00  5.000E+00  5.000E+03 -1.641E+01
   1   16   10     2     6    1.5059E+06 -2.7418E+04   1.5333E+06  0.000E+00  0.000E+00  0.000E+00  1.13403E+02  2.342E+00  5.000E+00  5.000E+03 -1.097E+01
   1   22   10     3     1    1.8635E+06 -2.7835E+04   1.8913E+06  0.000E+00  0.000E+00  0.000E+00  1.11504E+02  2.548E+00  5.000E+00  5.000E+03 -1.113E+01
   1   23   10     3     2    1.8913E+06 -4.0094E+04   1.9314E+06  0.000E+00  0.000E+00  0.000E+00  1.10704E+02  2.576E+00  5.000E+00  3.750E+03 -2.138E+01
   1   23   11     3     3    1.9314E+06 -2.3763E+04   1.9552E+06  0.000E+00  0.000E+00  0.000E+00  1.10139E+02  2.602E+00  5.000E+00  2.500E+03 -1.901E+01
   1   23   12     3     4    1.9552E+06 -4.7150E+04   2.0024E+06  0.000E+00  0.000E+00  0.000E+00  1.09458E+02  2.630E+00  5.000E+00  5.000E+03 -1.886E+01
   1   23   13     3     5    2.0024E+06 -5.0793E+04   2.0531E+06  0.000E+00  0.000E+00  0.000E+00  1.08551E+02  2.669E+00  5.000E+00  5.000E+03 -2.032E+01
   1   23   14     3     6    2.0531E+06 -5.4511E+04   2.1077E+06  0.000E+00  0.000E+00  0.000E+00  1.07646E+02  2.710E+00  5.000E+00  5.000E+03 -2.180E+01
   1   23   15     3     7    2.1077E+06 -6.1857E+04   2.1695E+06  0.000E+00  0.000E+00  0.000E+00  1.06746E+02  2.756E+00  5.000E+00  5.000E+03 -2.474E+01
   1   23   16     3     8    2.1695E+06 -9.0027E+04   2.2595E+06  0.000E+00  0.000E+00  0.000E+00  1.05858E+02  2.814E+00  5.000E+00  5.000E+03 -3.601E+01





     0  LAKE CELLS ARE DRY.

 PERIOD     1     TIME STEP   173     TIME STEP LENGTH  1.0333E+01
 PERIOD TIME  1.2006E+03     TOTAL SIMULATION TIME  1.2006E+03


                 HYDROLOGIC BUDGET SUMMARIES FOR SIMULATED LAKES
     (ALL FLUID FLUXES ARE VOLUMES ADDED TO THE LAKE DURING PRESENT TIME STEP)
     -------------------------------------------------------------------------
 LAKE    STAGE         VOLUME     VOL.CHANGE      PRECIP     EVAPORATION        RUNOFF
   1   117.0289     8.5180E+07    1.2800E+02    7.4917E+05    6.6521E+05    0.0000E+00
   2   111.9656     5.3534E+07    2.6800E+02    7.4917E+05    6.6521E+05    0.0000E+00

            GROUND WATER            SURFACE WATER        WATER
 LAKE    INFLOW     OUTFLOW      INFLOW     OUTFLOW       USE
   1  3.0592E+06  0.0000E+00  1.0776E+07  1.3919E+07  0.0000E+00
   2  3.3285E+06  0.0000E+00  1.5844E+07  1.9256E+07  0.0000E+00

      CONNECTED LAKE   TIME-STEP         STAGE-CHANGE          PERCENT
 LAKE    INFLUX      SURFACE AREA   TIME STEP  CUMULATIVE    DISCREPANCY
   1   0.0000E+00     6.2500E+06   1.9784E-05 -1.2971E+01       0.000
   2   0.0000E+00     6.2500E+06   4.2881E-05 -1.8034E+01       0.000
 --------------------------------------------------------------------------------



            CUMULATIVE HYDROLOGIC BUDGET SUMMARIES FOR SIMULATED LAKES
     (ALL FLUID FLUXES ARE SUMS OF VOLUMES ADDED TO THE LAKE SINCE INITIAL TIME)
     ---------------------------------------------------------------------------
 LAKE       PRECIP       EVAP       RUNOFF
   1     8.7043E+07  7.7288E+07  0.0000E+00
   2     8.7043E+07  7.7288E+07  0.0000E+00

            GROUND WATER            SURFACE WATER
 LAKE    INFLOW     OUTFLOW      INFLOW     OUTFLOW
   1  2.7919E+08  1.5644E+06  1.1854E+09  1.5539E+09
   2  3.1189E+08  1.4259E+06  1.7328E+09  2.1658E+09

         WATER    CONNECTED LAKE   CHANGE       PERCENT
 LAKE     USE         INFLUX       IN VOL.    DISCREPANCY
   1   0.0000E+00   0.0000E+00  -8.1069E+07      0.000
   2   0.0000E+00   0.0000E+00  -1.1271E+08      0.000
 --------------------------------------------------------------------------------

 
 SOLVING FOR HEAD 
     4 ITERATIONS FOR TIME STEP 174 IN STRESS PERIOD    1

 HEAD/DRAWDOWN PRINTOUT FLAG = 0     TOTAL BUDGET PRINTOUT FLAG = 0
 CELL-BY-CELL FLOW TERM FLAG = 1

 OUTPUT FLAGS FOR ALL LAYERS ARE THE SAME:
   HEAD    DRAWDOWN  HEAD  DRAWDOWN
 PRINTOUT  PRINTOUT  SAVE    SAVE
 ----------------------------------
     0         0       0       0



 STREAM LISTING     PERIOD      1   STEP      174

 LAYER ROW COL. STREAM  RCH.  FLOW INTO     FLOW TO   FLOW OUT OF   OVRLND.     DIRECT     STREAM       STREAM     STREAM     STREAM   STREAMBED  STREAMBED
                SEG.NO.  NO.  STRM. RCH.    AQUIFER    STRM. RCH.    RUNOFF     PRECIP       ET          HEAD       DEPTH      WIDTH   CONDCTNC.   GRADIENT

   1    2    5     1     1    6.9120E+05 -8.0028E+04   7.7123E+05  0.000E+00  0.000E+00  0.000E+00  1.25330E+02  1.382E+00  5.000E+00  5.000E+03 -3.201E+01
   1    3    5     1     2    7.7123E+05 -5.6360E+04   8.2759E+05  0.000E+00  0.000E+00  0.000E+00  1.24303E+02  1.458E+00  5.000E+00  5.000E+03 -2.254E+01
   1    4    5     1     3    8.2759E+05 -5.3355E+04   8.8094E+05  0.000E+00  0.000E+00  0.000E+00  1.23258E+02  1.517E+00  5.000E+00  5.000E+03 -2.134E+01
   1    4    6     1     4    8.8094E+05 -4.3614E+04   9.2456E+05  0.000E+00  0.000E+00  0.000E+00  1.22206E+02  1.568E+00  5.000E+00  5.000E+03 -1.745E+01
   1    4    7     1     5    9.2456E+05 -2.1234E+04   9.4579E+05  0.000E+00  0.000E+00  0.000E+00  1.21412E+02  1.602E+00  5.000E+00  2.500E+03 -1.699E+01
   1    4    8     1     6    9.4579E+05 -3.4869E+04   9.8066E+05  0.000E+00  0.000E+00  0.000E+00  1.20751E+02  1.630E+00  5.000E+00  3.750E+03 -1.860E+01
   1    5    8     1     7    9.8066E+05 -3.6817E+04   1.0175E+06  0.000E+00  0.000E+00  0.000E+00  1.19822E+02  1.667E+00  5.000E+00  5.000E+03 -1.473E+01
   1    6    8     1     8    1.0175E+06 -2.5366E+04   1.0428E+06  0.000E+00  0.000E+00  0.000E+00  1.18749E+02  1.697E+00  5.000E+00  5.000E+03 -1.015E+01
   1   12    9     2     1    1.3470E+06 -2.7276E+04   1.3743E+06  0.000E+00  0.000E+00  0.000E+00  1.16632E+02  2.192E+00  5.000E+00  5.000E+03 -1.091E+01
   1   13    9     2     2    1.3743E+06 -4.2968E+04   1.4173E+06  0.000E+00  0.000E+00  0.000E+00  1.15845E+02  2.226E+00  5.000E+00  5.000E+03 -1.719E+01
   1   14   10     2     3    1.4173E+06 -2.3200E+04   1.4405E+06  0.000E+00  0.000E+00  0.000E+00  1.15237E+02  2.258E+00  5.000E+00  2.795E+03 -1.660E+01
   1   14   10     2     4    1.4405E+06 -2.4420E+04   1.4649E+06  0.000E+00  0.000E+00  0.000E+00  1.14801E+02  2.280E+00  5.000E+00  2.795E+03 -1.747E+01
   1   15   10     2     5    1.4649E+06 -4.1031E+04   1.5059E+06  0.000E+00  0.000E+00  0.000E+00  1.14192E+02  2.311E+00  5.000E+00  5.000E+03 -1.641E+01
   1   16   10     2     6    1.5059E+06 -2.7420E+04   1.5333E+06  0.000E+00  0.000E+00  0.000E+00  1.13403E+02  2.342E+00  5.000E+00  5.000E+03 -1.097E+01
   1   22   10     3     1    1.8636E+06 -2.7836E+04   1.8914E+06  0.000E+00  0.000E+00  0.000E+00  1.11504E+02  2.548E+00  5.000E+00  5.000E+03 -1.113E+01
   1   23   10     3     2    1.8914E+06 -4.0095E+04   1.9315E+06  0.000E+00  0.000E+00  0.000E+00  1.10704E+02  2.576E+00  5.000E+00  3.750E+03 -2.138E+01
   1   23   11     3     3    1.9315E+06 -2.3764E+04   1.9553E+06  0.000E+00  0.000E+00  0.000E+00  1.10139E+02  2.602E+00  5.000E+00  2.500E+03 -1.901E+01
   1   23   12     3     4    1.9553E+06 -4.7151E+04   2.0024E+06  0.000E+00  0.000E+00  0.000E+00  1.09458E+02  2.630E+00  5.000E+00  5.000E+03 -1.886E+01
   1   23   13     3     5    2.0024E+06 -5.0794E+04   2.0532E+06  0.000E+00  0.000E+00  0.000E+00  1.08551E+02  2.669E+00  5.000E+00  5.000E+03 -2.032E+01
   1   23   14     3     6    2.0532E+06 -5.4512E+04   2.1077E+06  0.000E+00  0.000E+00  0.000E+00  1.07646E+02  2.710E+00  5.000E+00  5.000E+03 -2.180E+01
   1   23   15     3     7    2.1077E+06 -6.1857E+04   2.1696E+06  0.000E+00  0.000E+00  0.000E+00  1.06746E+02  2.756E+00  5.000E+00  5.000E+03 -2.474E+01
   1   23   16     3     8    2.1696E+06 -9.0027E+04   2.2596E+06  0.000E+00  0.000E+00  0.000E+00  1.05858E+02  2.814E+00  5.000E+00  5.000E+03 -3.601E+01





     0  LAKE CELLS ARE DRY.

 PERIOD     1     TIME STEP   174     TIME STEP LENGTH  1.0385E+01
 PERIOD TIME  1.2110E+03     TOTAL SIMULATION TIME  1.2110E+03


                 HYDROLOGIC BUDGET SUMMARIES FOR SIMULATED LAKES
     (ALL FLUID FLUXES ARE VOLUMES ADDED TO THE LAKE DURING PRESENT TIME STEP)
     -------------------------------------------------------------------------
 LAKE    STAGE         VOLUME     VOL.CHANGE      PRECIP     EVAPORATION        RUNOFF
   1   117.0289     8.5180E+07    9.6000E+01    7.5292E+05    6.6854E+05    0.0000E+00
   2   111.9657     5.3535E+07    2.3200E+02    7.5292E+05    6.6854E+05    0.0000E+00

            GROUND WATER            SURFACE WATER        WATER
 LAKE    INFLOW     OUTFLOW      INFLOW     OUTFLOW       USE
   1  3.0746E+06  0.0000E+00  1.0830E+07  1.3989E+07  0.0000E+00
   2  3.3453E+06  0.0000E+00  1.5924E+07  1.9353E+07  0.0000E+00

      CONNECTED LAKE   TIME-STEP         STAGE-CHANGE          PERCENT
 LAKE    INFLUX      SURFACE AREA   TIME STEP  CUMULATIVE    DISCREPANCY
   1   0.0000E+00     6.2500E+06   1.5574E-05 -1.2971E+01       0.000
   2   0.0000E+00     6.2500E+06   3.7176E-05 -1.8034E+01       0.000
 --------------------------------------------------------------------------------



            CUMULATIVE HYDROLOGIC BUDGET SUMMARIES FOR SIMULATED LAKES
     (ALL FLUID FLUXES ARE SUMS OF VOLUMES ADDED TO THE LAKE SINCE INITIAL TIME)
     ---------------------------------------------------------------------------
 LAKE       PRECIP       EVAP       RUNOFF
   1     8.7796E+07  7.7957E+07  0.0000E+00
   2     8.7796E+07  7.7957E+07  0.0000E+00

            GROUND WATER            SURFACE WATER
 LAKE    INFLOW     OUTFLOW      INFLOW     OUTFLOW
   1  2.8227E+08  1.5644E+06  1.1963E+09  1.5679E+09
   2  3.1524E+08  1.4259E+06  1.7488E+09  2.1851E+09

         WATER    CONNECTED LAKE   CHANGE       PERCENT
 LAKE     USE         INFLUX       IN VOL.    DISCREPANCY
   1   0.0000E+00   0.0000E+00  -8.1068E+07      0.000
   2   0.0000E+00   0.0000E+00  -1.1271E+08      0.000
 --------------------------------------------------------------------------------

 
 SOLVING FOR HEAD 
     4 ITERATIONS FOR TIME STEP 175 IN STRESS PERIOD    1

 HEAD/DRAWDOWN PRINTOUT FLAG = 0     TOTAL BUDGET PRINTOUT FLAG = 0
 CELL-BY-CELL FLOW TERM FLAG = 1

 OUTPUT FLAGS FOR ALL LAYERS ARE THE SAME:
   HEAD    DRAWDOWN  HEAD  DRAWDOWN
 PRINTOUT  PRINTOUT  SAVE    SAVE
 ----------------------------------
     0         0       0       0



 STREAM LISTING     PERIOD      1   STEP      175

 LAYER ROW COL. STREAM  RCH.  FLOW INTO     FLOW TO   FLOW OUT OF   OVRLND.     DIRECT     STREAM       STREAM     STREAM     STREAM   STREAMBED  STREAMBED
                SEG.NO.  NO.  STRM. RCH.    AQUIFER    STRM. RCH.    RUNOFF     PRECIP       ET          HEAD       DEPTH      WIDTH   CONDCTNC.   GRADIENT

   1    2    5     1     1    6.9120E+05 -8.0028E+04   7.7123E+05  0.000E+00  0.000E+00  0.000E+00  1.25330E+02  1.382E+00  5.000E+00  5.000E+03 -3.201E+01
   1    3    5     1     2    7.7123E+05 -5.6360E+04   8.2759E+05  0.000E+00  0.000E+00  0.000E+00  1.24303E+02  1.458E+00  5.000E+00  5.000E+03 -2.254E+01
   1    4    5     1     3    8.2759E+05 -5.3356E+04   8.8094E+05  0.000E+00  0.000E+00  0.000E+00  1.23258E+02  1.517E+00  5.000E+00  5.000E+03 -2.134E+01
   1    4    6     1     4    8.8094E+05 -4.3615E+04   9.2456E+05  0.000E+00  0.000E+00  0.000E+00  1.22206E+02  1.568E+00  5.000E+00  5.000E+03 -1.745E+01
   1    4    7     1     5    9.2456E+05 -2.1235E+04   9.4579E+05  0.000E+00  0.000E+00  0.000E+00  1.21412E+02  1.602E+00  5.000E+00  2.500E+03 -1.699E+01
   1    4    8     1     6    9.4579E+05 -3.4869E+04   9.8066E+05  0.000E+00  0.000E+00  0.000E+00  1.20751E+02  1.630E+00  5.000E+00  3.750E+03 -1.860E+01
   1    5    8     1     7    9.8066E+05 -3.6818E+04   1.0175E+06  0.000E+00  0.000E+00  0.000E+00  1.19822E+02  1.667E+00  5.000E+00  5.000E+03 -1.473E+01
   1    6    8     1     8    1.0175E+06 -2.5366E+04   1.0428E+06  0.000E+00  0.000E+00  0.000E+00  1.18749E+02  1.697E+00  5.000E+00  5.000E+03 -1.015E+01
   1   12    9     2     1    1.3470E+06 -2.7278E+04   1.3743E+06  0.000E+00  0.000E+00  0.000E+00  1.16632E+02  2.192E+00  5.000E+00  5.000E+03 -1.091E+01
   1   13    9     2     2    1.3743E+06 -4.2971E+04   1.4173E+06  0.000E+00  0.000E+00  0.000E+00  1.15845E+02  2.226E+00  5.000E+00  5.000E+03 -1.719E+01
   1   14   10     2     3    1.4173E+06 -2.3202E+04   1.4405E+06  0.000E+00  0.000E+00  0.000E+00  1.15237E+02  2.258E+00  5.000E+00  2.795E+03 -1.660E+01
   1   14   10     2     4    1.4405E+06 -2.4421E+04   1.4649E+06  0.000E+00  0.000E+00  0.000E+00  1.14801E+02  2.280E+00  5.000E+00  2.795E+03 -1.747E+01
   1   15   10     2     5    1.4649E+06 -4.1034E+04   1.5059E+06  0.000E+00  0.000E+00  0.000E+00  1.14192E+02  2.311E+00  5.000E+00  5.000E+03 -1.641E+01
   1   16   10     2     6    1.5059E+06 -2.7422E+04   1.5334E+06  0.000E+00  0.000E+00  0.000E+00  1.13403E+02  2.343E+00  5.000E+00  5.000E+03 -1.097E+01
   1   22   10     3     1    1.8636E+06 -2.7836E+04   1.8914E+06  0.000E+00  0.000E+00  0.000E+00  1.11504E+02  2.549E+00  5.000E+00  5.000E+03 -1.113E+01
   1   23   10     3     2    1.8914E+06 -4.0095E+04   1.9315E+06  0.000E+00  0.000E+00  0.000E+00  1.10704E+02  2.576E+00  5.000E+00  3.750E+03 -2.138E+01
   1   23   11     3     3    1.9315E+06 -2.3764E+04   1.9553E+06  0.000E+00  0.000E+00  0.000E+00  1.10139E+02  2.602E+00  5.000E+00  2.500E+03 -1.901E+01
   1   23   12     3     4    1.9553E+06 -4.7152E+04   2.0025E+06  0.000E+00  0.000E+00  0.000E+00  1.09458E+02  2.630E+00  5.000E+00  5.000E+03 -1.886E+01
   1   23   13     3     5    2.0025E+06 -5.0795E+04   2.0532E+06  0.000E+00  0.000E+00  0.000E+00  1.08551E+02  2.669E+00  5.000E+00  5.000E+03 -2.032E+01
   1   23   14     3     6    2.0532E+06 -5.4512E+04   2.1078E+06  0.000E+00  0.000E+00  0.000E+00  1.07646E+02  2.710E+00  5.000E+00  5.000E+03 -2.180E+01
   1   23   15     3     7    2.1078E+06 -6.1858E+04   2.1696E+06  0.000E+00  0.000E+00  0.000E+00  1.06746E+02  2.756E+00  5.000E+00  5.000E+03 -2.474E+01
   1   23   16     3     8    2.1696E+06 -9.0027E+04   2.2596E+06  0.000E+00  0.000E+00  0.000E+00  1.05858E+02  2.814E+00  5.000E+00  5.000E+03 -3.601E+01





     0  LAKE CELLS ARE DRY.

 PERIOD     1     TIME STEP   175     TIME STEP LENGTH  1.0437E+01
 PERIOD TIME  1.2214E+03     TOTAL SIMULATION TIME  1.2214E+03


                 HYDROLOGIC BUDGET SUMMARIES FOR SIMULATED LAKES
     (ALL FLUID FLUXES ARE VOLUMES ADDED TO THE LAKE DURING PRESENT TIME STEP)
     -------------------------------------------------------------------------
 LAKE    STAGE         VOLUME     VOL.CHANGE      PRECIP     EVAPORATION        RUNOFF
   1   117.0289     8.5180E+07    1.1200E+02    7.5668E+05    6.7188E+05    0.0000E+00
   2   111.9657     5.3535E+07    2.4400E+02    7.5668E+05    6.7188E+05    0.0000E+00

            GROUND WATER            SURFACE WATER        WATER
 LAKE    INFLOW     OUTFLOW      INFLOW     OUTFLOW       USE
   1  3.0901E+06  0.0000E+00  1.0884E+07  1.4059E+07  0.0000E+00
   2  3.3622E+06  0.0000E+00  1.6004E+07  1.9450E+07  0.0000E+00

      CONNECTED LAKE   TIME-STEP         STAGE-CHANGE          PERCENT
 LAKE    INFLUX      SURFACE AREA   TIME STEP  CUMULATIVE    DISCREPANCY
   1   0.0000E+00     6.2500E+06   1.8261E-05 -1.2971E+01       0.000
   2   0.0000E+00     6.2500E+06   3.9397E-05 -1.8034E+01       0.000
 --------------------------------------------------------------------------------



            CUMULATIVE HYDROLOGIC BUDGET SUMMARIES FOR SIMULATED LAKES
     (ALL FLUID FLUXES ARE SUMS OF VOLUMES ADDED TO THE LAKE SINCE INITIAL TIME)
     ---------------------------------------------------------------------------
 LAKE       PRECIP       EVAP       RUNOFF
   1     8.8553E+07  7.8629E+07  0.0000E+00
   2     8.8553E+07  7.8629E+07  0.0000E+00

            GROUND WATER            SURFACE WATER
 LAKE    INFLOW     OUTFLOW      INFLOW     OUTFLOW
   1  2.8536E+08  1.5644E+06  1.2071E+09  1.5819E+09
   2  3.1860E+08  1.4259E+06  1.7648E+09  2.2046E+09

         WATER    CONNECTED LAKE   CHANGE       PERCENT
 LAKE     USE         INFLUX       IN VOL.    DISCREPANCY
   1   0.0000E+00   0.0000E+00  -8.1068E+07      0.000
   2   0.0000E+00   0.0000E+00  -1.1271E+08      0.000
 --------------------------------------------------------------------------------

 
 SOLVING FOR HEAD 
     4 ITERATIONS FOR TIME STEP 176 IN STRESS PERIOD    1

 HEAD/DRAWDOWN PRINTOUT FLAG = 0     TOTAL BUDGET PRINTOUT FLAG = 0
 CELL-BY-CELL FLOW TERM FLAG = 1

 OUTPUT FLAGS FOR ALL LAYERS ARE THE SAME:
   HEAD    DRAWDOWN  HEAD  DRAWDOWN
 PRINTOUT  PRINTOUT  SAVE    SAVE
 ----------------------------------
     0         0       0       0



 STREAM LISTING     PERIOD      1   STEP      176

 LAYER ROW COL. STREAM  RCH.  FLOW INTO     FLOW TO   FLOW OUT OF   OVRLND.     DIRECT     STREAM       STREAM     STREAM     STREAM   STREAMBED  STREAMBED
                SEG.NO.  NO.  STRM. RCH.    AQUIFER    STRM. RCH.    RUNOFF     PRECIP       ET          HEAD       DEPTH      WIDTH   CONDCTNC.   GRADIENT

   1    2    5     1     1    6.9120E+05 -8.0028E+04   7.7123E+05  0.000E+00  0.000E+00  0.000E+00  1.25330E+02  1.382E+00  5.000E+00  5.000E+03 -3.201E+01
   1    3    5     1     2    7.7123E+05 -5.6360E+04   8.2759E+05  0.000E+00  0.000E+00  0.000E+00  1.24303E+02  1.458E+00  5.000E+00  5.000E+03 -2.254E+01
   1    4    5     1     3    8.2759E+05 -5.3357E+04   8.8095E+05  0.000E+00  0.000E+00  0.000E+00  1.23258E+02  1.517E+00  5.000E+00  5.000E+03 -2.134E+01
   1    4    6     1     4    8.8095E+05 -4.3615E+04   9.2456E+05  0.000E+00  0.000E+00  0.000E+00  1.22206E+02  1.568E+00  5.000E+00  5.000E+03 -1.745E+01
   1    4    7     1     5    9.2456E+05 -2.1235E+04   9.4580E+05  0.000E+00  0.000E+00  0.000E+00  1.21412E+02  1.602E+00  5.000E+00  2.500E+03 -1.699E+01
   1    4    8     1     6    9.4580E+05 -3.4870E+04   9.8067E+05  0.000E+00  0.000E+00  0.000E+00  1.20751E+02  1.630E+00  5.000E+00  3.750E+03 -1.860E+01
   1    5    8     1     7    9.8067E+05 -3.6818E+04   1.0175E+06  0.000E+00  0.000E+00  0.000E+00  1.19822E+02  1.667E+00  5.000E+00  5.000E+03 -1.473E+01
   1    6    8     1     8    1.0175E+06 -2.5367E+04   1.0429E+06  0.000E+00  0.000E+00  0.000E+00  1.18749E+02  1.697E+00  5.000E+00  5.000E+03 -1.015E+01
   1   12    9     2     1    1.3471E+06 -2.7279E+04   1.3743E+06  0.000E+00  0.000E+00  0.000E+00  1.16632E+02  2.192E+00  5.000E+00  5.000E+03 -1.091E+01
   1   13    9     2     2    1.3743E+06 -4.2974E+04   1.4173E+06  0.000E+00  0.000E+00  0.000E+00  1.15845E+02  2.226E+00  5.000E+00  5.000E+03 -1.719E+01
   1   14   10     2     3    1.4173E+06 -2.3203E+04   1.4405E+06  0.000E+00  0.000E+00  0.000E+00  1.15237E+02  2.258E+00  5.000E+00  2.795E+03 -1.660E+01
   1   14   10     2     4    1.4405E+06 -2.4423E+04   1.4649E+06  0.000E+00  0.000E+00  0.000E+00  1.14801E+02  2.280E+00  5.000E+00  2.795E+03 -1.748E+01
   1   15   10     2     5    1.4649E+06 -4.1036E+04   1.5060E+06  0.000E+00  0.000E+00  0.000E+00  1.14192E+02  2.311E+00  5.000E+00  5.000E+03 -1.641E+01
   1   16   10     2     6    1.5060E+06 -2.7424E+04   1.5334E+06  0.000E+00  0.000E+00  0.000E+00  1.13403E+02  2.343E+00  5.000E+00  5.000E+03 -1.097E+01
   1   22   10     3     1    1.8636E+06 -2.7837E+04   1.8915E+06  0.000E+00  0.000E+00  0.000E+00  1.11504E+02  2.549E+00  5.000E+00  5.000E+03 -1.113E+01
   1   23   10     3     2    1.8915E+06 -4.0096E+04   1.9316E+06  0.000E+00  0.000E+00  0.000E+00  1.10704E+02  2.576E+00  5.000E+00  3.750E+03 -2.138E+01
   1   23   11     3     3    1.9316E+06 -2.3764E+04   1.9553E+06  0.000E+00  0.000E+00  0.000E+00  1.10139E+02  2.602E+00  5.000E+00  2.500E+03 -1.901E+01
   1   23   12     3     4    1.9553E+06 -4.7153E+04   2.0025E+06  0.000E+00  0.000E+00  0.000E+00  1.09458E+02  2.630E+00  5.000E+00  5.000E+03 -1.886E+01
   1   23   13     3     5    2.0025E+06 -5.0796E+04   2.0533E+06  0.000E+00  0.000E+00  0.000E+00  1.08551E+02  2.669E+00  5.000E+00  5.000E+03 -2.032E+01
   1   23   14     3     6    2.0533E+06 -5.4513E+04   2.1078E+06  0.000E+00  0.000E+00  0.000E+00  1.07646E+02  2.710E+00  5.000E+00  5.000E+03 -2.181E+01
   1   23   15     3     7    2.1078E+06 -6.1858E+04   2.1697E+06  0.000E+00  0.000E+00  0.000E+00  1.06746E+02  2.756E+00  5.000E+00  5.000E+03 -2.474E+01
   1   23   16     3     8    2.1697E+06 -9.0027E+04   2.2597E+06  0.000E+00  0.000E+00  0.000E+00  1.05858E+02  2.814E+00  5.000E+00  5.000E+03 -3.601E+01





     0  LAKE CELLS ARE DRY.

 PERIOD     1     TIME STEP   176     TIME STEP LENGTH  1.0489E+01
 PERIOD TIME  1.2319E+03     TOTAL SIMULATION TIME  1.2319E+03


                 HYDROLOGIC BUDGET SUMMARIES FOR SIMULATED LAKES
     (ALL FLUID FLUXES ARE VOLUMES ADDED TO THE LAKE DURING PRESENT TIME STEP)
     -------------------------------------------------------------------------
 LAKE    STAGE         VOLUME     VOL.CHANGE      PRECIP     EVAPORATION        RUNOFF
   1   117.0290     8.5180E+07    9.6000E+01    7.6046E+05    6.7524E+05    0.0000E+00
   2   111.9657     5.3535E+07    2.0800E+02    7.6046E+05    6.7524E+05    0.0000E+00

            GROUND WATER            SURFACE WATER        WATER
 LAKE    INFLOW     OUTFLOW      INFLOW     OUTFLOW       USE
   1  3.1057E+06  0.0000E+00  1.0939E+07  1.4129E+07  0.0000E+00
   2  3.3791E+06  0.0000E+00  1.6084E+07  1.9548E+07  0.0000E+00

      CONNECTED LAKE   TIME-STEP         STAGE-CHANGE          PERCENT
 LAKE    INFLUX      SURFACE AREA   TIME STEP  CUMULATIVE    DISCREPANCY
   1   0.0000E+00     6.2500E+06   1.5468E-05 -1.2971E+01       0.000
   2   0.0000E+00     6.2500E+06   3.2881E-05 -1.8034E+01       0.000
 --------------------------------------------------------------------------------



            CUMULATIVE HYDROLOGIC BUDGET SUMMARIES FOR SIMULATED LAKES
     (ALL FLUID FLUXES ARE SUMS OF VOLUMES ADDED TO THE LAKE SINCE INITIAL TIME)
     ---------------------------------------------------------------------------
 LAKE       PRECIP       EVAP       RUNOFF
   1     8.9313E+07  7.9304E+07  0.0000E+00
   2     8.9313E+07  7.9304E+07  0.0000E+00

            GROUND WATER            SURFACE WATER
 LAKE    INFLOW     OUTFLOW      INFLOW     OUTFLOW
   1  2.8847E+08  1.5644E+06  1.2181E+09  1.5961E+09
   2  3.2198E+08  1.4259E+06  1.7808E+09  2.2241E+09

         WATER    CONNECTED LAKE   CHANGE       PERCENT
 LAKE     USE         INFLUX       IN VOL.    DISCREPANCY
   1   0.0000E+00   0.0000E+00  -8.1068E+07      0.000
   2   0.0000E+00   0.0000E+00  -1.1271E+08      0.000
 --------------------------------------------------------------------------------

 
 SOLVING FOR HEAD 
     4 ITERATIONS FOR TIME STEP 177 IN STRESS PERIOD    1

 HEAD/DRAWDOWN PRINTOUT FLAG = 0     TOTAL BUDGET PRINTOUT FLAG = 0
 CELL-BY-CELL FLOW TERM FLAG = 1

 OUTPUT FLAGS FOR ALL LAYERS ARE THE SAME:
   HEAD    DRAWDOWN  HEAD  DRAWDOWN
 PRINTOUT  PRINTOUT  SAVE    SAVE
 ----------------------------------
     0         0       0       0



 STREAM LISTING     PERIOD      1   STEP      177

 LAYER ROW COL. STREAM  RCH.  FLOW INTO     FLOW TO   FLOW OUT OF   OVRLND.     DIRECT     STREAM       STREAM     STREAM     STREAM   STREAMBED  STREAMBED
                SEG.NO.  NO.  STRM. RCH.    AQUIFER    STRM. RCH.    RUNOFF     PRECIP       ET          HEAD       DEPTH      WIDTH   CONDCTNC.   GRADIENT

   1    2    5     1     1    6.9120E+05 -8.0028E+04   7.7123E+05  0.000E+00  0.000E+00  0.000E+00  1.25330E+02  1.382E+00  5.000E+00  5.000E+03 -3.201E+01
   1    3    5     1     2    7.7123E+05 -5.6361E+04   8.2759E+05  0.000E+00  0.000E+00  0.000E+00  1.24303E+02  1.458E+00  5.000E+00  5.000E+03 -2.254E+01
   1    4    5     1     3    8.2759E+05 -5.3357E+04   8.8095E+05  0.000E+00  0.000E+00  0.000E+00  1.23258E+02  1.517E+00  5.000E+00  5.000E+03 -2.134E+01
   1    4    6     1     4    8.8095E+05 -4.3616E+04   9.2456E+05  0.000E+00  0.000E+00  0.000E+00  1.22206E+02  1.568E+00  5.000E+00  5.000E+03 -1.745E+01
   1    4    7     1     5    9.2456E+05 -2.1235E+04   9.4580E+05  0.000E+00  0.000E+00  0.000E+00  1.21412E+02  1.602E+00  5.000E+00  2.500E+03 -1.699E+01
   1    4    8     1     6    9.4580E+05 -3.4870E+04   9.8067E+05  0.000E+00  0.000E+00  0.000E+00  1.20751E+02  1.630E+00  5.000E+00  3.750E+03 -1.860E+01
   1    5    8     1     7    9.8067E+05 -3.6819E+04   1.0175E+06  0.000E+00  0.000E+00  0.000E+00  1.19822E+02  1.667E+00  5.000E+00  5.000E+03 -1.473E+01
   1    6    8     1     8    1.0175E+06 -2.5368E+04   1.0429E+06  0.000E+00  0.000E+00  0.000E+00  1.18749E+02  1.697E+00  5.000E+00  5.000E+03 -1.015E+01
   1   12    9     2     1    1.3471E+06 -2.7281E+04   1.3743E+06  0.000E+00  0.000E+00  0.000E+00  1.16632E+02  2.192E+00  5.000E+00  5.000E+03 -1.091E+01
   1   13    9     2     2    1.3743E+06 -4.2976E+04   1.4173E+06  0.000E+00  0.000E+00  0.000E+00  1.15845E+02  2.226E+00  5.000E+00  5.000E+03 -1.719E+01
   1   14   10     2     3    1.4173E+06 -2.3205E+04   1.4405E+06  0.000E+00  0.000E+00  0.000E+00  1.15237E+02  2.258E+00  5.000E+00  2.795E+03 -1.660E+01
   1   14   10     2     4    1.4405E+06 -2.4424E+04   1.4650E+06  0.000E+00  0.000E+00  0.000E+00  1.14801E+02  2.280E+00  5.000E+00  2.795E+03 -1.748E+01
   1   15   10     2     5    1.4650E+06 -4.1039E+04   1.5060E+06  0.000E+00  0.000E+00  0.000E+00  1.14192E+02  2.311E+00  5.000E+00  5.000E+03 -1.642E+01
   1   16   10     2     6    1.5060E+06 -2.7425E+04   1.5334E+06  0.000E+00  0.000E+00  0.000E+00  1.13403E+02  2.343E+00  5.000E+00  5.000E+03 -1.097E+01
   1   22   10     3     1    1.8637E+06 -2.7838E+04   1.8915E+06  0.000E+00  0.000E+00  0.000E+00  1.11504E+02  2.549E+00  5.000E+00  5.000E+03 -1.114E+01
   1   23   10     3     2    1.8915E+06 -4.0097E+04   1.9316E+06  0.000E+00  0.000E+00  0.000E+00  1.10704E+02  2.576E+00  5.000E+00  3.750E+03 -2.139E+01
   1   23   11     3     3    1.9316E+06 -2.3765E+04   1.9554E+06  0.000E+00  0.000E+00  0.000E+00  1.10139E+02  2.602E+00  5.000E+00  2.500E+03 -1.901E+01
   1   23   12     3     4    1.9554E+06 -4.7154E+04   2.0025E+06  0.000E+00  0.000E+00  0.000E+00  1.09458E+02  2.630E+00  5.000E+00  5.000E+03 -1.886E+01
   1   23   13     3     5    2.0025E+06 -5.0797E+04   2.0533E+06  0.000E+00  0.000E+00  0.000E+00  1.08551E+02  2.669E+00  5.000E+00  5.000E+03 -2.032E+01
   1   23   14     3     6    2.0533E+06 -5.4513E+04   2.1078E+06  0.000E+00  0.000E+00  0.000E+00  1.07646E+02  2.710E+00  5.000E+00  5.000E+03 -2.181E+01
   1   23   15     3     7    2.1078E+06 -6.1858E+04   2.1697E+06  0.000E+00  0.000E+00  0.000E+00  1.06746E+02  2.756E+00  5.000E+00  5.000E+03 -2.474E+01
   1   23   16     3     8    2.1697E+06 -9.0027E+04   2.2597E+06  0.000E+00  0.000E+00  0.000E+00  1.05858E+02  2.814E+00  5.000E+00  5.000E+03 -3.601E+01





     0  LAKE CELLS ARE DRY.

 PERIOD     1     TIME STEP   177     TIME STEP LENGTH  1.0542E+01
 PERIOD TIME  1.2424E+03     TOTAL SIMULATION TIME  1.2424E+03


                 HYDROLOGIC BUDGET SUMMARIES FOR SIMULATED LAKES
     (ALL FLUID FLUXES ARE VOLUMES ADDED TO THE LAKE DURING PRESENT TIME STEP)
     -------------------------------------------------------------------------
 LAKE    STAGE         VOLUME     VOL.CHANGE      PRECIP     EVAPORATION        RUNOFF
   1   117.0290     8.5180E+07    8.0000E+01    7.6427E+05    6.7862E+05    0.0000E+00
   2   111.9658     5.3535E+07    1.8400E+02    7.6427E+05    6.7862E+05    0.0000E+00

            GROUND WATER            SURFACE WATER        WATER
 LAKE    INFLOW     OUTFLOW      INFLOW     OUTFLOW       USE
   1  3.1213E+06  0.0000E+00  1.0993E+07  1.4200E+07  0.0000E+00
   2  3.3961E+06  0.0000E+00  1.6165E+07  1.9646E+07  0.0000E+00

      CONNECTED LAKE   TIME-STEP         STAGE-CHANGE          PERCENT
 LAKE    INFLUX      SURFACE AREA   TIME STEP  CUMULATIVE    DISCREPANCY
   1   0.0000E+00     6.2500E+06   1.2488E-05 -1.2971E+01       0.000
   2   0.0000E+00     6.2500E+06   2.9935E-05 -1.8034E+01       0.000
 --------------------------------------------------------------------------------



            CUMULATIVE HYDROLOGIC BUDGET SUMMARIES FOR SIMULATED LAKES
     (ALL FLUID FLUXES ARE SUMS OF VOLUMES ADDED TO THE LAKE SINCE INITIAL TIME)
     ---------------------------------------------------------------------------
 LAKE       PRECIP       EVAP       RUNOFF
   1     9.0077E+07  7.9983E+07  0.0000E+00
   2     9.0077E+07  7.9983E+07  0.0000E+00

            GROUND WATER            SURFACE WATER
 LAKE    INFLOW     OUTFLOW      INFLOW     OUTFLOW
   1  2.9159E+08  1.5644E+06  1.2291E+09  1.6103E+09
   2  3.2538E+08  1.4259E+06  1.7970E+09  2.2438E+09

         WATER    CONNECTED LAKE   CHANGE       PERCENT
 LAKE     USE         INFLUX       IN VOL.    DISCREPANCY
   1   0.0000E+00   0.0000E+00  -8.1068E+07      0.000
   2   0.0000E+00   0.0000E+00  -1.1271E+08      0.000
 --------------------------------------------------------------------------------

 
 SOLVING FOR HEAD 
     3 ITERATIONS FOR TIME STEP 178 IN STRESS PERIOD    1

 HEAD/DRAWDOWN PRINTOUT FLAG = 0     TOTAL BUDGET PRINTOUT FLAG = 0
 CELL-BY-CELL FLOW TERM FLAG = 1

 OUTPUT FLAGS FOR ALL LAYERS ARE THE SAME:
   HEAD    DRAWDOWN  HEAD  DRAWDOWN
 PRINTOUT  PRINTOUT  SAVE    SAVE
 ----------------------------------
     0         0       0       0



 STREAM LISTING     PERIOD      1   STEP      178

 LAYER ROW COL. STREAM  RCH.  FLOW INTO     FLOW TO   FLOW OUT OF   OVRLND.     DIRECT     STREAM       STREAM     STREAM     STREAM   STREAMBED  STREAMBED
                SEG.NO.  NO.  STRM. RCH.    AQUIFER    STRM. RCH.    RUNOFF     PRECIP       ET          HEAD       DEPTH      WIDTH   CONDCTNC.   GRADIENT

   1    2    5     1     1    6.9120E+05 -8.0029E+04   7.7123E+05  0.000E+00  0.000E+00  0.000E+00  1.25330E+02  1.382E+00  5.000E+00  5.000E+03 -3.201E+01
   1    3    5     1     2    7.7123E+05 -5.6361E+04   8.2759E+05  0.000E+00  0.000E+00  0.000E+00  1.24303E+02  1.458E+00  5.000E+00  5.000E+03 -2.254E+01
   1    4    5     1     3    8.2759E+05 -5.3358E+04   8.8095E+05  0.000E+00  0.000E+00  0.000E+00  1.23258E+02  1.517E+00  5.000E+00  5.000E+03 -2.134E+01
   1    4    6     1     4    8.8095E+05 -4.3616E+04   9.2456E+05  0.000E+00  0.000E+00  0.000E+00  1.22206E+02  1.568E+00  5.000E+00  5.000E+03 -1.745E+01
   1    4    7     1     5    9.2456E+05 -2.1236E+04   9.4580E+05  0.000E+00  0.000E+00  0.000E+00  1.21412E+02  1.602E+00  5.000E+00  2.500E+03 -1.699E+01
   1    4    8     1     6    9.4580E+05 -3.4871E+04   9.8067E+05  0.000E+00  0.000E+00  0.000E+00  1.20751E+02  1.630E+00  5.000E+00  3.750E+03 -1.860E+01
   1    5    8     1     7    9.8067E+05 -3.6820E+04   1.0175E+06  0.000E+00  0.000E+00  0.000E+00  1.19822E+02  1.667E+00  5.000E+00  5.000E+03 -1.473E+01
   1    6    8     1     8    1.0175E+06 -2.5368E+04   1.0429E+06  0.000E+00  0.000E+00  0.000E+00  1.18749E+02  1.697E+00  5.000E+00  5.000E+03 -1.015E+01
   1   12    9     2     1    1.3471E+06 -2.7282E+04   1.3744E+06  0.000E+00  0.000E+00  0.000E+00  1.16632E+02  2.192E+00  5.000E+00  5.000E+03 -1.091E+01
   1   13    9     2     2    1.3744E+06 -4.2978E+04   1.4173E+06  0.000E+00  0.000E+00  0.000E+00  1.15845E+02  2.226E+00  5.000E+00  5.000E+03 -1.719E+01
   1   14   10     2     3    1.4173E+06 -2.3206E+04   1.4405E+06  0.000E+00  0.000E+00  0.000E+00  1.15237E+02  2.258E+00  5.000E+00  2.795E+03 -1.661E+01
   1   14   10     2     4    1.4405E+06 -2.4425E+04   1.4650E+06  0.000E+00  0.000E+00  0.000E+00  1.14801E+02  2.280E+00  5.000E+00  2.795E+03 -1.748E+01
   1   15   10     2     5    1.4650E+06 -4.1041E+04   1.5060E+06  0.000E+00  0.000E+00  0.000E+00  1.14192E+02  2.311E+00  5.000E+00  5.000E+03 -1.642E+01
   1   16   10     2     6    1.5060E+06 -2.7426E+04   1.5334E+06  0.000E+00  0.000E+00  0.000E+00  1.13403E+02  2.343E+00  5.000E+00  5.000E+03 -1.097E+01
   1   22   10     3     1    1.8637E+06 -2.7838E+04   1.8916E+06  0.000E+00  0.000E+00  0.000E+00  1.11504E+02  2.549E+00  5.000E+00  5.000E+03 -1.114E+01
   1   23   10     3     2    1.8916E+06 -4.0098E+04   1.9317E+06  0.000E+00  0.000E+00  0.000E+00  1.10704E+02  2.576E+00  5.000E+00  3.750E+03 -2.139E+01
   1   23   11     3     3    1.9317E+06 -2.3765E+04   1.9554E+06  0.000E+00  0.000E+00  0.000E+00  1.10139E+02  2.602E+00  5.000E+00  2.500E+03 -1.901E+01
   1   23   12     3     4    1.9554E+06 -4.7154E+04   2.0026E+06  0.000E+00  0.000E+00  0.000E+00  1.09458E+02  2.630E+00  5.000E+00  5.000E+03 -1.886E+01
   1   23   13     3     5    2.0026E+06 -5.0797E+04   2.0534E+06  0.000E+00  0.000E+00  0.000E+00  1.08551E+02  2.669E+00  5.000E+00  5.000E+03 -2.032E+01
   1   23   14     3     6    2.0534E+06 -5.4514E+04   2.1079E+06  0.000E+00  0.000E+00  0.000E+00  1.07646E+02  2.711E+00  5.000E+00  5.000E+03 -2.181E+01
   1   23   15     3     7    2.1079E+06 -6.1859E+04   2.1697E+06  0.000E+00  0.000E+00  0.000E+00  1.06746E+02  2.756E+00  5.000E+00  5.000E+03 -2.474E+01
   1   23   16     3     8    2.1697E+06 -9.0027E+04   2.2598E+06  0.000E+00  0.000E+00  0.000E+00  1.05858E+02  2.814E+00  5.000E+00  5.000E+03 -3.601E+01





     0  LAKE CELLS ARE DRY.

 PERIOD     1     TIME STEP   178     TIME STEP LENGTH  1.0594E+01
 PERIOD TIME  1.2530E+03     TOTAL SIMULATION TIME  1.2530E+03


                 HYDROLOGIC BUDGET SUMMARIES FOR SIMULATED LAKES
     (ALL FLUID FLUXES ARE VOLUMES ADDED TO THE LAKE DURING PRESENT TIME STEP)
     -------------------------------------------------------------------------
 LAKE    STAGE         VOLUME     VOL.CHANGE      PRECIP     EVAPORATION        RUNOFF
   1   117.0290     8.5180E+07    1.0400E+02    7.6809E+05    6.8201E+05    0.0000E+00
   2   111.9658     5.3535E+07    2.4000E+02    7.6809E+05    6.8201E+05    0.0000E+00

            GROUND WATER            SURFACE WATER        WATER
 LAKE    INFLOW     OUTFLOW      INFLOW     OUTFLOW       USE
   1  3.1370E+06  0.0000E+00  1.1048E+07  1.4271E+07  0.0000E+00
   2  3.4132E+06  0.0000E+00  1.6246E+07  1.9745E+07  0.0000E+00

      CONNECTED LAKE   TIME-STEP         STAGE-CHANGE          PERCENT
 LAKE    INFLUX      SURFACE AREA   TIME STEP  CUMULATIVE    DISCREPANCY
   1   0.0000E+00     6.2500E+06   1.7318E-05 -1.2971E+01       0.000
   2   0.0000E+00     6.2500E+06   3.7925E-05 -1.8034E+01       0.000
 --------------------------------------------------------------------------------



            CUMULATIVE HYDROLOGIC BUDGET SUMMARIES FOR SIMULATED LAKES
     (ALL FLUID FLUXES ARE SUMS OF VOLUMES ADDED TO THE LAKE SINCE INITIAL TIME)
     ---------------------------------------------------------------------------
 LAKE       PRECIP       EVAP       RUNOFF
   1     9.0846E+07  8.0665E+07  0.0000E+00
   2     9.0846E+07  8.0665E+07  0.0000E+00

            GROUND WATER            SURFACE WATER
 LAKE    INFLOW     OUTFLOW      INFLOW     OUTFLOW
   1  2.9472E+08  1.5644E+06  1.2401E+09  1.6245E+09
   2  3.2879E+08  1.4259E+06  1.8133E+09  2.2635E+09

         WATER    CONNECTED LAKE   CHANGE       PERCENT
 LAKE     USE         INFLUX       IN VOL.    DISCREPANCY
   1   0.0000E+00   0.0000E+00  -8.1068E+07      0.000
   2   0.0000E+00   0.0000E+00  -1.1271E+08      0.000
 --------------------------------------------------------------------------------

 
 SOLVING FOR HEAD 
     3 ITERATIONS FOR TIME STEP 179 IN STRESS PERIOD    1

 HEAD/DRAWDOWN PRINTOUT FLAG = 0     TOTAL BUDGET PRINTOUT FLAG = 0
 CELL-BY-CELL FLOW TERM FLAG = 1

 OUTPUT FLAGS FOR ALL LAYERS ARE THE SAME:
   HEAD    DRAWDOWN  HEAD  DRAWDOWN
 PRINTOUT  PRINTOUT  SAVE    SAVE
 ----------------------------------
     0         0       0       0



 STREAM LISTING     PERIOD      1   STEP      179

 LAYER ROW COL. STREAM  RCH.  FLOW INTO     FLOW TO   FLOW OUT OF   OVRLND.     DIRECT     STREAM       STREAM     STREAM     STREAM   STREAMBED  STREAMBED
                SEG.NO.  NO.  STRM. RCH.    AQUIFER    STRM. RCH.    RUNOFF     PRECIP       ET          HEAD       DEPTH      WIDTH   CONDCTNC.   GRADIENT

   1    2    5     1     1    6.9120E+05 -8.0029E+04   7.7123E+05  0.000E+00  0.000E+00  0.000E+00  1.25330E+02  1.382E+00  5.000E+00  5.000E+03 -3.201E+01
   1    3    5     1     2    7.7123E+05 -5.6361E+04   8.2759E+05  0.000E+00  0.000E+00  0.000E+00  1.24303E+02  1.458E+00  5.000E+00  5.000E+03 -2.254E+01
   1    4    5     1     3    8.2759E+05 -5.3359E+04   8.8095E+05  0.000E+00  0.000E+00  0.000E+00  1.23258E+02  1.517E+00  5.000E+00  5.000E+03 -2.134E+01
   1    4    6     1     4    8.8095E+05 -4.3617E+04   9.2457E+05  0.000E+00  0.000E+00  0.000E+00  1.22206E+02  1.568E+00  5.000E+00  5.000E+03 -1.745E+01
   1    4    7     1     5    9.2457E+05 -2.1236E+04   9.4580E+05  0.000E+00  0.000E+00  0.000E+00  1.21412E+02  1.602E+00  5.000E+00  2.500E+03 -1.699E+01
   1    4    8     1     6    9.4580E+05 -3.4871E+04   9.8067E+05  0.000E+00  0.000E+00  0.000E+00  1.20751E+02  1.630E+00  5.000E+00  3.750E+03 -1.860E+01
   1    5    8     1     7    9.8067E+05 -3.6820E+04   1.0175E+06  0.000E+00  0.000E+00  0.000E+00  1.19822E+02  1.667E+00  5.000E+00  5.000E+03 -1.473E+01
   1    6    8     1     8    1.0175E+06 -2.5369E+04   1.0429E+06  0.000E+00  0.000E+00  0.000E+00  1.18749E+02  1.697E+00  5.000E+00  5.000E+03 -1.015E+01
   1   12    9     2     1    1.3471E+06 -2.7283E+04   1.3744E+06  0.000E+00  0.000E+00  0.000E+00  1.16632E+02  2.192E+00  5.000E+00  5.000E+03 -1.091E+01
   1   13    9     2     2    1.3744E+06 -4.2981E+04   1.4174E+06  0.000E+00  0.000E+00  0.000E+00  1.15845E+02  2.226E+00  5.000E+00  5.000E+03 -1.719E+01
   1   14   10     2     3    1.4174E+06 -2.3207E+04   1.4406E+06  0.000E+00  0.000E+00  0.000E+00  1.15237E+02  2.258E+00  5.000E+00  2.795E+03 -1.661E+01
   1   14   10     2     4    1.4406E+06 -2.4426E+04   1.4650E+06  0.000E+00  0.000E+00  0.000E+00  1.14801E+02  2.280E+00  5.000E+00  2.795E+03 -1.748E+01
   1   15   10     2     5    1.4650E+06 -4.1043E+04   1.5060E+06  0.000E+00  0.000E+00  0.000E+00  1.14192E+02  2.311E+00  5.000E+00  5.000E+03 -1.642E+01
   1   16   10     2     6    1.5060E+06 -2.7428E+04   1.5335E+06  0.000E+00  0.000E+00  0.000E+00  1.13403E+02  2.343E+00  5.000E+00  5.000E+03 -1.097E+01
   1   22   10     3     1    1.8638E+06 -2.7839E+04   1.8916E+06  0.000E+00  0.000E+00  0.000E+00  1.11504E+02  2.549E+00  5.000E+00  5.000E+03 -1.114E+01
   1   23   10     3     2    1.8916E+06 -4.0098E+04   1.9317E+06  0.000E+00  0.000E+00  0.000E+00  1.10704E+02  2.576E+00  5.000E+00  3.750E+03 -2.139E+01
   1   23   11     3     3    1.9317E+06 -2.3766E+04   1.9555E+06  0.000E+00  0.000E+00  0.000E+00  1.10139E+02  2.602E+00  5.000E+00  2.500E+03 -1.901E+01
   1   23   12     3     4    1.9555E+06 -4.7155E+04   2.0026E+06  0.000E+00  0.000E+00  0.000E+00  1.09458E+02  2.630E+00  5.000E+00  5.000E+03 -1.886E+01
   1   23   13     3     5    2.0026E+06 -5.0798E+04   2.0534E+06  0.000E+00  0.000E+00  0.000E+00  1.08551E+02  2.669E+00  5.000E+00  5.000E+03 -2.032E+01
   1   23   14     3     6    2.0534E+06 -5.4515E+04   2.1079E+06  0.000E+00  0.000E+00  0.000E+00  1.07647E+02  2.711E+00  5.000E+00  5.000E+03 -2.181E+01
   1   23   15     3     7    2.1079E+06 -6.1859E+04   2.1698E+06  0.000E+00  0.000E+00  0.000E+00  1.06746E+02  2.756E+00  5.000E+00  5.000E+03 -2.474E+01
   1   23   16     3     8    2.1698E+06 -9.0027E+04   2.2598E+06  0.000E+00  0.000E+00  0.000E+00  1.05858E+02  2.814E+00  5.000E+00  5.000E+03 -3.601E+01





     0  LAKE CELLS ARE DRY.

 PERIOD     1     TIME STEP   179     TIME STEP LENGTH  1.0647E+01
 PERIOD TIME  1.2637E+03     TOTAL SIMULATION TIME  1.2637E+03


                 HYDROLOGIC BUDGET SUMMARIES FOR SIMULATED LAKES
     (ALL FLUID FLUXES ARE VOLUMES ADDED TO THE LAKE DURING PRESENT TIME STEP)
     -------------------------------------------------------------------------
 LAKE    STAGE         VOLUME     VOL.CHANGE      PRECIP     EVAPORATION        RUNOFF
   1   117.0290     8.5180E+07    8.0000E+01    7.7193E+05    6.8542E+05    0.0000E+00
   2   111.9658     5.3536E+07    2.1200E+02    7.7193E+05    6.8542E+05    0.0000E+00

            GROUND WATER            SURFACE WATER        WATER
 LAKE    INFLOW     OUTFLOW      INFLOW     OUTFLOW       USE
   1  3.1528E+06  0.0000E+00  1.1104E+07  1.4343E+07  0.0000E+00
   2  3.4305E+06  0.0000E+00  1.6327E+07  1.9844E+07  0.0000E+00

      CONNECTED LAKE   TIME-STEP         STAGE-CHANGE          PERCENT
 LAKE    INFLUX      SURFACE AREA   TIME STEP  CUMULATIVE    DISCREPANCY
   1   0.0000E+00     6.2500E+06   1.2932E-05 -1.2971E+01       0.000
   2   0.0000E+00     6.2500E+06   3.3962E-05 -1.8034E+01       0.000
 --------------------------------------------------------------------------------



            CUMULATIVE HYDROLOGIC BUDGET SUMMARIES FOR SIMULATED LAKES
     (ALL FLUID FLUXES ARE SUMS OF VOLUMES ADDED TO THE LAKE SINCE INITIAL TIME)
     ---------------------------------------------------------------------------
 LAKE       PRECIP       EVAP       RUNOFF
   1     9.1617E+07  8.1350E+07  0.0000E+00
   2     9.1617E+07  8.1350E+07  0.0000E+00

            GROUND WATER            SURFACE WATER
 LAKE    INFLOW     OUTFLOW      INFLOW     OUTFLOW
   1  2.9788E+08  1.5644E+06  1.2512E+09  1.6389E+09
   2  3.3222E+08  1.4259E+06  1.8296E+09  2.2834E+09

         WATER    CONNECTED LAKE   CHANGE       PERCENT
 LAKE     USE         INFLUX       IN VOL.    DISCREPANCY
   1   0.0000E+00   0.0000E+00  -8.1068E+07      0.000
   2   0.0000E+00   0.0000E+00  -1.1271E+08      0.000
 --------------------------------------------------------------------------------

 
 SOLVING FOR HEAD 
     3 ITERATIONS FOR TIME STEP 180 IN STRESS PERIOD    1

 HEAD/DRAWDOWN PRINTOUT FLAG = 1     TOTAL BUDGET PRINTOUT FLAG = 1
 CELL-BY-CELL FLOW TERM FLAG = 1

 OUTPUT FLAGS FOR EACH LAYER:
          HEAD    DRAWDOWN  HEAD  DRAWDOWN
 LAYER  PRINTOUT  PRINTOUT  SAVE    SAVE
 -----------------------------------------
    1       0         0       0       0
    2       0         0       0       0
    3       0         0       0       0
    4       0         0       0       0
    5       1         0       0       0



 STREAM LISTING     PERIOD      1   STEP      180

 LAYER ROW COL. STREAM  RCH.  FLOW INTO     FLOW TO   FLOW OUT OF   OVRLND.     DIRECT     STREAM       STREAM     STREAM     STREAM   STREAMBED  STREAMBED
                SEG.NO.  NO.  STRM. RCH.    AQUIFER    STRM. RCH.    RUNOFF     PRECIP       ET          HEAD       DEPTH      WIDTH   CONDCTNC.   GRADIENT

   1    2    5     1     1    6.9120E+05 -8.0029E+04   7.7123E+05  0.000E+00  0.000E+00  0.000E+00  1.25330E+02  1.382E+00  5.000E+00  5.000E+03 -3.201E+01
   1    3    5     1     2    7.7123E+05 -5.6361E+04   8.2759E+05  0.000E+00  0.000E+00  0.000E+00  1.24303E+02  1.458E+00  5.000E+00  5.000E+03 -2.254E+01
   1    4    5     1     3    8.2759E+05 -5.3359E+04   8.8095E+05  0.000E+00  0.000E+00  0.000E+00  1.23258E+02  1.517E+00  5.000E+00  5.000E+03 -2.134E+01
   1    4    6     1     4    8.8095E+05 -4.3617E+04   9.2457E+05  0.000E+00  0.000E+00  0.000E+00  1.22206E+02  1.568E+00  5.000E+00  5.000E+03 -1.745E+01
   1    4    7     1     5    9.2457E+05 -2.1236E+04   9.4580E+05  0.000E+00  0.000E+00  0.000E+00  1.21412E+02  1.602E+00  5.000E+00  2.500E+03 -1.699E+01
   1    4    8     1     6    9.4580E+05 -3.4871E+04   9.8067E+05  0.000E+00  0.000E+00  0.000E+00  1.20751E+02  1.630E+00  5.000E+00  3.750E+03 -1.860E+01
   1    5    8     1     7    9.8067E+05 -3.6821E+04   1.0175E+06  0.000E+00  0.000E+00  0.000E+00  1.19822E+02  1.667E+00  5.000E+00  5.000E+03 -1.473E+01
   1    6    8     1     8    1.0175E+06 -2.5369E+04   1.0429E+06  0.000E+00  0.000E+00  0.000E+00  1.18749E+02  1.697E+00  5.000E+00  5.000E+03 -1.015E+01
   1   12    9     2     1    1.3471E+06 -2.7284E+04   1.3744E+06  0.000E+00  0.000E+00  0.000E+00  1.16632E+02  2.192E+00  5.000E+00  5.000E+03 -1.091E+01
   1   13    9     2     2    1.3744E+06 -4.2983E+04   1.4174E+06  0.000E+00  0.000E+00  0.000E+00  1.15845E+02  2.226E+00  5.000E+00  5.000E+03 -1.719E+01
   1   14   10     2     3    1.4174E+06 -2.3208E+04   1.4406E+06  0.000E+00  0.000E+00  0.000E+00  1.15237E+02  2.258E+00  5.000E+00  2.795E+03 -1.661E+01
   1   14   10     2     4    1.4406E+06 -2.4428E+04   1.4650E+06  0.000E+00  0.000E+00  0.000E+00  1.14801E+02  2.280E+00  5.000E+00  2.795E+03 -1.748E+01
   1   15   10     2     5    1.4650E+06 -4.1045E+04   1.5060E+06  0.000E+00  0.000E+00  0.000E+00  1.14192E+02  2.311E+00  5.000E+00  5.000E+03 -1.642E+01
   1   16   10     2     6    1.5060E+06 -2.7429E+04   1.5335E+06  0.000E+00  0.000E+00  0.000E+00  1.13403E+02  2.343E+00  5.000E+00  5.000E+03 -1.097E+01
   1   22   10     3     1    1.8638E+06 -2.7840E+04   1.8916E+06  0.000E+00  0.000E+00  0.000E+00  1.11504E+02  2.549E+00  5.000E+00  5.000E+03 -1.114E+01
   1   23   10     3     2    1.8916E+06 -4.0099E+04   1.9317E+06  0.000E+00  0.000E+00  0.000E+00  1.10704E+02  2.576E+00  5.000E+00  3.750E+03 -2.139E+01
   1   23   11     3     3    1.9317E+06 -2.3766E+04   1.9555E+06  0.000E+00  0.000E+00  0.000E+00  1.10139E+02  2.602E+00  5.000E+00  2.500E+03 -1.901E+01
   1   23   12     3     4    1.9555E+06 -4.7156E+04   2.0026E+06  0.000E+00  0.000E+00  0.000E+00  1.09458E+02  2.630E+00  5.000E+00  5.000E+03 -1.886E+01
   1   23   13     3     5    2.0026E+06 -5.0799E+04   2.0534E+06  0.000E+00  0.000E+00  0.000E+00  1.08551E+02  2.669E+00  5.000E+00  5.000E+03 -2.032E+01
   1   23   14     3     6    2.0534E+06 -5.4515E+04   2.1080E+06  0.000E+00  0.000E+00  0.000E+00  1.07647E+02  2.711E+00  5.000E+00  5.000E+03 -2.181E+01
   1   23   15     3     7    2.1080E+06 -6.1860E+04   2.1698E+06  0.000E+00  0.000E+00  0.000E+00  1.06746E+02  2.756E+00  5.000E+00  5.000E+03 -2.474E+01
   1   23   16     3     8    2.1698E+06 -9.0027E+04   2.2598E+06  0.000E+00  0.000E+00  0.000E+00  1.05858E+02  2.814E+00  5.000E+00  5.000E+03 -3.601E+01





     0  LAKE CELLS ARE DRY.

 PERIOD     1     TIME STEP   180     TIME STEP LENGTH  1.0701E+01
 PERIOD TIME  1.2744E+03     TOTAL SIMULATION TIME  1.2744E+03


                 HYDROLOGIC BUDGET SUMMARIES FOR SIMULATED LAKES
     (ALL FLUID FLUXES ARE VOLUMES ADDED TO THE LAKE DURING PRESENT TIME STEP)
     -------------------------------------------------------------------------
 LAKE    STAGE         VOLUME     VOL.CHANGE      PRECIP     EVAPORATION        RUNOFF
   1   117.0290     8.5180E+07    8.8000E+01    7.7579E+05    6.8885E+05    0.0000E+00
   2   111.9659     5.3536E+07    1.6400E+02    7.7579E+05    6.8885E+05    0.0000E+00

            GROUND WATER            SURFACE WATER        WATER
 LAKE    INFLOW     OUTFLOW      INFLOW     OUTFLOW       USE
   1  3.1686E+06  0.0000E+00  1.1159E+07  1.4415E+07  0.0000E+00
   2  3.4477E+06  0.0000E+00  1.6409E+07  1.9944E+07  0.0000E+00

      CONNECTED LAKE   TIME-STEP         STAGE-CHANGE          PERCENT
 LAKE    INFLUX      SURFACE AREA   TIME STEP  CUMULATIVE    DISCREPANCY
   1   0.0000E+00     6.2500E+06   1.3265E-05 -1.2971E+01       0.000
   2   0.0000E+00     6.2500E+06   2.6427E-05 -1.8034E+01       0.000
 --------------------------------------------------------------------------------



            CUMULATIVE HYDROLOGIC BUDGET SUMMARIES FOR SIMULATED LAKES
     (ALL FLUID FLUXES ARE SUMS OF VOLUMES ADDED TO THE LAKE SINCE INITIAL TIME)
     ---------------------------------------------------------------------------
 LAKE       PRECIP       EVAP       RUNOFF
   1     9.2393E+07  8.2039E+07  0.0000E+00
   2     9.2393E+07  8.2039E+07  0.0000E+00

            GROUND WATER            SURFACE WATER
 LAKE    INFLOW     OUTFLOW      INFLOW     OUTFLOW
   1  3.0105E+08  1.5644E+06  1.2624E+09  1.6533E+09
   2  3.3567E+08  1.4259E+06  1.8460E+09  2.3033E+09

         WATER    CONNECTED LAKE   CHANGE       PERCENT
 LAKE     USE         INFLUX       IN VOL.    DISCREPANCY
   1   0.0000E+00   0.0000E+00  -8.1068E+07      0.000
   2   0.0000E+00   0.0000E+00  -1.1271E+08      0.000
 --------------------------------------------------------------------------------

1
              HEAD IN LAYER   5 AT END OF TIME STEP 180 IN STRESS PERIOD    1
  ---------------------------------------------------------------------------

          1      2      3      4      5      6      7      8      9     10
 .........................................................................
   1   160.0  158.9  157.3  155.8  154.2  152.7  151.5  150.8  150.0  149.2
   2   160.0  158.2  155.3  151.1  141.4  146.7  147.2  147.2  147.0  146.6
   3   160.0  157.6  153.6  147.6  135.6  139.9  140.8  141.3  142.1  142.8
   4   160.0  157.3  153.0  146.7  133.9  130.9  129.9  130.1  135.4  138.2
   5   160.0  157.3  153.3  148.3  141.8  136.2  131.3  127.2  131.5  134.5
   6   160.0  157.4  153.6  149.3  143.7  136.2  128.4  123.8  126.1  128.1
   7   160.0  157.5  153.7  149.5  143.7  133.6  117.9  117.3  117.3  117.4
   8   160.0  157.5  153.8  149.6  143.7  132.8  117.5  117.1  117.0  117.1
   9   160.0  157.5  153.9  149.8  143.8  132.8  117.5  117.0  117.0  117.0
  10   160.0  157.6  154.0  150.0  144.2  133.3  117.6  117.1  117.0  117.1
  11   160.0  157.6  154.1  150.2  144.7  134.7  118.0  117.4  117.2  117.3
  12   160.0  157.6  154.3  150.6  145.8  138.7  130.8  126.5  122.1  125.0
  13   160.0  157.7  154.4  151.0  147.0  141.5  135.8  131.0  124.5  127.8
  14   160.0  157.7  154.5  151.2  147.3  142.4  137.6  133.6  128.9  123.6
  15   160.0  157.7  154.4  151.0  146.9  141.4  136.2  132.3  127.8  122.4
  16   160.0  157.6  154.2  150.5  145.5  137.8  129.5  125.5  122.3  118.9
  17   160.0  157.6  154.1  150.1  144.2  132.7  113.1  112.4  112.3  112.2
  18   160.0  157.6  154.1  150.0  143.7  131.1  112.6  112.0  112.0  112.0
  19   160.0  157.6  154.1  149.9  143.6  130.7  112.6  112.0  112.0  112.0
  20   160.0  157.6  154.1  150.1  143.8  131.3  112.6  112.0  112.0  112.0
  21   160.0  157.7  154.3  150.3  144.5  133.1  113.2  112.4  112.3  112.2
  22   160.0  157.7  154.5  151.0  146.2  138.7  130.3  126.1  122.1  117.1
  23   160.0  157.9  154.9  151.9  148.3  143.6  138.9  135.1  129.8  121.4
  24   160.0  158.0  155.4  152.8  150.0  146.8  143.9  141.8  139.5  137.3
  25   160.0  158.2  155.9  153.7  151.5  149.1  147.2  145.9  144.6  143.3
  26   160.0  158.5  156.6  154.8  153.0  151.2  149.8  148.8  147.9  147.0
  27   160.0  158.9  157.3  155.8  154.2  152.7  151.5  150.8  150.0  149.2
1
              HEAD IN LAYER   5 AT END OF TIME STEP 180 IN STRESS PERIOD    1
  ---------------------------------------------------------------------------

         11     12     13     14     15     16     17
 ....................................................
   1   148.5  147.3  145.8  144.2  142.7  141.1  140.0
   2   146.3  145.6  144.4  143.1  141.8  140.5  140.0
   3   143.1  143.3  142.8  141.9  141.0  140.1  140.0
   4   139.8  141.1  141.4  141.1  140.5  139.9  140.0
   5   136.5  138.7  140.0  140.3  140.0  139.8  140.0
   6   130.4  135.2  138.4  139.5  139.7  139.7  140.0
   7   117.9  131.3  137.2  139.0  139.5  139.6  140.0
   8   117.5  130.0  136.6  138.8  139.4  139.6  140.0
   9   117.4  129.5  136.3  138.7  139.3  139.6  140.0
  10   117.4  129.6  136.4  138.6  139.3  139.5  140.0
  11   117.8  130.5  136.6  138.7  139.3  139.5  140.0
  12   127.9  133.4  137.3  138.9  139.3  139.5  140.0
  13   131.0  135.1  137.9  139.0  139.4  139.5  140.0
  14   129.3  134.7  137.8  138.9  139.3  139.5  140.0
  15   127.7  133.5  137.1  138.6  139.1  139.5  140.0
  16   123.5  130.8  135.9  137.9  138.8  139.3  140.0
  17   112.8  127.1  134.5  137.2  138.3  139.1  140.0
  18   112.4  125.7  133.7  136.6  137.9  138.9  140.0
  19   112.4  124.8  132.9  135.9  137.3  138.6  140.0
  20   112.4  124.3  132.0  134.8  136.3  138.1  140.0
  21   112.6  124.0  130.8  133.4  134.9  137.2  140.0
  22   119.7  124.1  128.0  129.9  131.5  134.9  140.0
  23   119.7  118.9  118.7  118.6  119.1  123.9  140.0
  24   135.7  134.1  132.9  132.2  132.5  135.2  140.0
  25   142.2  140.8  139.3  138.3  137.8  138.5  140.0
  26   146.1  144.9  143.4  142.0  140.9  140.1  140.0
  27   148.5  147.3  145.8  144.2  142.7  141.1  140.0
1
  VOLUMETRIC BUDGET FOR ENTIRE MODEL AT END OF TIME STEP180 IN STRESS PERIOD   1
  ------------------------------------------------------------------------------

     CUMULATIVE VOLUMES      L**3       RATES FOR THIS TIME STEP      L**3/T
     ------------------                 ------------------------

           IN:                                      IN:
           ---                                      ---
             STORAGE =     2934567.7500               STORAGE =           0.0000
       CONSTANT HEAD =  1185526528.0000         CONSTANT HEAD =      540489.5000
                  ET =           0.0000                    ET =           0.0000
            RECHARGE =  3510943488.0000              RECHARGE =     2755000.0000
     SPECIFIED FLOWS =           0.0000       SPECIFIED FLOWS =           0.0000
      STREAM LEAKAGE =     3694574.2500        STREAM LEAKAGE =           0.0000
       LAKE  SEEPAGE =     2990331.7500         LAKE  SEEPAGE =           0.0000

            TOTAL IN =  4706089472.0000              TOTAL IN =     3295489.5000

          OUT:                                     OUT:
          ----                                     ----
             STORAGE =  1271760384.0000               STORAGE =        1354.3319
       CONSTANT HEAD =     2335179.0000         CONSTANT HEAD =        2774.5637
                  ET =  1756747392.0000                    ET =     1738948.0000
            RECHARGE =           0.0000              RECHARGE =           0.0000
     SPECIFIED FLOWS =           0.0000       SPECIFIED FLOWS =           0.0000
      STREAM LEAKAGE =  1038523904.0000        STREAM LEAKAGE =      934100.1250
       LAKE  SEEPAGE =   636714240.0000         LAKE  SEEPAGE =      618322.7500

           TOTAL OUT =  4706081280.0000             TOTAL OUT =     3295499.7500

            IN - OUT =        8192.0000              IN - OUT =         -10.2500

 PERCENT DISCREPANCY =           0.00     PERCENT DISCREPANCY =           0.00






          TIME SUMMARY AT END OF TIME STEP 180 IN STRESS PERIOD    1
                    SECONDS     MINUTES      HOURS       DAYS        YEARS
                    -----------------------------------------------------------
   TIME STEP LENGTH 9.24525E+05  15409.      256.81      10.701     2.92964E-02
 STRESS PERIOD TIME 1.10107E+08 1.83512E+06  30585.      1274.4      3.4891    
         TOTAL TIME 1.10107E+08 1.83512E+06  30585.      1274.4      3.4891    
1
 
 SOLVING FOR HEAD 
     3 ITERATIONS FOR TIME STEP 181 IN STRESS PERIOD    1

 HEAD/DRAWDOWN PRINTOUT FLAG = 0     TOTAL BUDGET PRINTOUT FLAG = 0
 CELL-BY-CELL FLOW TERM FLAG = 1

 OUTPUT FLAGS FOR ALL LAYERS ARE THE SAME:
   HEAD    DRAWDOWN  HEAD  DRAWDOWN
 PRINTOUT  PRINTOUT  SAVE    SAVE
 ----------------------------------
     0         0       0       0



 STREAM LISTING     PERIOD      1   STEP      181

 LAYER ROW COL. STREAM  RCH.  FLOW INTO     FLOW TO   FLOW OUT OF   OVRLND.     DIRECT     STREAM       STREAM     STREAM     STREAM   STREAMBED  STREAMBED
                SEG.NO.  NO.  STRM. RCH.    AQUIFER    STRM. RCH.    RUNOFF     PRECIP       ET          HEAD       DEPTH      WIDTH   CONDCTNC.   GRADIENT

   1    2    5     1     1    6.9120E+05 -8.0029E+04   7.7123E+05  0.000E+00  0.000E+00  0.000E+00  1.25330E+02  1.382E+00  5.000E+00  5.000E+03 -3.201E+01
   1    3    5     1     2    7.7123E+05 -5.6362E+04   8.2759E+05  0.000E+00  0.000E+00  0.000E+00  1.24303E+02  1.458E+00  5.000E+00  5.000E+03 -2.254E+01
   1    4    5     1     3    8.2759E+05 -5.3359E+04   8.8095E+05  0.000E+00  0.000E+00  0.000E+00  1.23258E+02  1.517E+00  5.000E+00  5.000E+03 -2.134E+01
   1    4    6     1     4    8.8095E+05 -4.3618E+04   9.2457E+05  0.000E+00  0.000E+00  0.000E+00  1.22206E+02  1.568E+00  5.000E+00  5.000E+03 -1.745E+01
   1    4    7     1     5    9.2457E+05 -2.1236E+04   9.4580E+05  0.000E+00  0.000E+00  0.000E+00  1.21412E+02  1.602E+00  5.000E+00  2.500E+03 -1.699E+01
   1    4    8     1     6    9.4580E+05 -3.4872E+04   9.8068E+05  0.000E+00  0.000E+00  0.000E+00  1.20751E+02  1.630E+00  5.000E+00  3.750E+03 -1.860E+01
   1    5    8     1     7    9.8068E+05 -3.6821E+04   1.0175E+06  0.000E+00  0.000E+00  0.000E+00  1.19822E+02  1.667E+00  5.000E+00  5.000E+03 -1.473E+01
   1    6    8     1     8    1.0175E+06 -2.5370E+04   1.0429E+06  0.000E+00  0.000E+00  0.000E+00  1.18749E+02  1.697E+00  5.000E+00  5.000E+03 -1.015E+01
   1   12    9     2     1    1.3471E+06 -2.7285E+04   1.3744E+06  0.000E+00  0.000E+00  0.000E+00  1.16632E+02  2.192E+00  5.000E+00  5.000E+03 -1.091E+01
   1   13    9     2     2    1.3744E+06 -4.2984E+04   1.4174E+06  0.000E+00  0.000E+00  0.000E+00  1.15845E+02  2.226E+00  5.000E+00  5.000E+03 -1.719E+01
   1   14   10     2     3    1.4174E+06 -2.3209E+04   1.4406E+06  0.000E+00  0.000E+00  0.000E+00  1.15237E+02  2.258E+00  5.000E+00  2.795E+03 -1.661E+01
   1   14   10     2     4    1.4406E+06 -2.4429E+04   1.4650E+06  0.000E+00  0.000E+00  0.000E+00  1.14801E+02  2.280E+00  5.000E+00  2.795E+03 -1.748E+01
   1   15   10     2     5    1.4650E+06 -4.1047E+04   1.5061E+06  0.000E+00  0.000E+00  0.000E+00  1.14192E+02  2.311E+00  5.000E+00  5.000E+03 -1.642E+01
   1   16   10     2     6    1.5061E+06 -2.7430E+04   1.5335E+06  0.000E+00  0.000E+00  0.000E+00  1.13403E+02  2.343E+00  5.000E+00  5.000E+03 -1.097E+01
   1   22   10     3     1    1.8638E+06 -2.7840E+04   1.8917E+06  0.000E+00  0.000E+00  0.000E+00  1.11504E+02  2.549E+00  5.000E+00  5.000E+03 -1.114E+01
   1   23   10     3     2    1.8917E+06 -4.0099E+04   1.9318E+06  0.000E+00  0.000E+00  0.000E+00  1.10704E+02  2.576E+00  5.000E+00  3.750E+03 -2.139E+01
   1   23   11     3     3    1.9318E+06 -2.3766E+04   1.9555E+06  0.000E+00  0.000E+00  0.000E+00  1.10139E+02  2.602E+00  5.000E+00  2.500E+03 -1.901E+01
   1   23   12     3     4    1.9555E+06 -4.7156E+04   2.0027E+06  0.000E+00  0.000E+00  0.000E+00  1.09458E+02  2.630E+00  5.000E+00  5.000E+03 -1.886E+01
   1   23   13     3     5    2.0027E+06 -5.0799E+04   2.0535E+06  0.000E+00  0.000E+00  0.000E+00  1.08551E+02  2.669E+00  5.000E+00  5.000E+03 -2.032E+01
   1   23   14     3     6    2.0535E+06 -5.4516E+04   2.1080E+06  0.000E+00  0.000E+00  0.000E+00  1.07647E+02  2.711E+00  5.000E+00  5.000E+03 -2.181E+01
   1   23   15     3     7    2.1080E+06 -6.1860E+04   2.1699E+06  0.000E+00  0.000E+00  0.000E+00  1.06746E+02  2.756E+00  5.000E+00  5.000E+03 -2.474E+01
   1   23   16     3     8    2.1699E+06 -9.0028E+04   2.2599E+06  0.000E+00  0.000E+00  0.000E+00  1.05858E+02  2.814E+00  5.000E+00  5.000E+03 -3.601E+01





     0  LAKE CELLS ARE DRY.

 PERIOD     1     TIME STEP   181     TIME STEP LENGTH  1.0754E+01
 PERIOD TIME  1.2851E+03     TOTAL SIMULATION TIME  1.2851E+03


                 HYDROLOGIC BUDGET SUMMARIES FOR SIMULATED LAKES
     (ALL FLUID FLUXES ARE VOLUMES ADDED TO THE LAKE DURING PRESENT TIME STEP)
     -------------------------------------------------------------------------
 LAKE    STAGE         VOLUME     VOL.CHANGE      PRECIP     EVAPORATION        RUNOFF
   1   117.0290     8.5181E+07    6.4000E+01    7.7967E+05    6.9229E+05    0.0000E+00
   2   111.9659     5.3536E+07    1.5600E+02    7.7967E+05    6.9229E+05    0.0000E+00

            GROUND WATER            SURFACE WATER        WATER
 LAKE    INFLOW     OUTFLOW      INFLOW     OUTFLOW       USE
   1  3.1846E+06  0.0000E+00  1.1215E+07  1.4487E+07  0.0000E+00
   2  3.4651E+06  0.0000E+00  1.6491E+07  2.0044E+07  0.0000E+00

      CONNECTED LAKE   TIME-STEP         STAGE-CHANGE          PERCENT
 LAKE    INFLUX      SURFACE AREA   TIME STEP  CUMULATIVE    DISCREPANCY
   1   0.0000E+00     6.2500E+06   1.0804E-05 -1.2971E+01       0.000
   2   0.0000E+00     6.2500E+06   2.4785E-05 -1.8034E+01       0.000
 --------------------------------------------------------------------------------



            CUMULATIVE HYDROLOGIC BUDGET SUMMARIES FOR SIMULATED LAKES
     (ALL FLUID FLUXES ARE SUMS OF VOLUMES ADDED TO THE LAKE SINCE INITIAL TIME)
     ---------------------------------------------------------------------------
 LAKE       PRECIP       EVAP       RUNOFF
   1     9.3173E+07  8.2731E+07  0.0000E+00
   2     9.3173E+07  8.2731E+07  0.0000E+00

            GROUND WATER            SURFACE WATER
 LAKE    INFLOW     OUTFLOW      INFLOW     OUTFLOW
   1  3.0423E+08  1.5644E+06  1.2736E+09  1.6678E+09
   2  3.3913E+08  1.4259E+06  1.8625E+09  2.3233E+09

         WATER    CONNECTED LAKE   CHANGE       PERCENT
 LAKE     USE         INFLUX       IN VOL.    DISCREPANCY
   1   0.0000E+00   0.0000E+00  -8.1068E+07      0.000
   2   0.0000E+00   0.0000E+00  -1.1271E+08      0.000
 --------------------------------------------------------------------------------

 
 SOLVING FOR HEAD 
     3 ITERATIONS FOR TIME STEP 182 IN STRESS PERIOD    1

 HEAD/DRAWDOWN PRINTOUT FLAG = 0     TOTAL BUDGET PRINTOUT FLAG = 0
 CELL-BY-CELL FLOW TERM FLAG = 1

 OUTPUT FLAGS FOR ALL LAYERS ARE THE SAME:
   HEAD    DRAWDOWN  HEAD  DRAWDOWN
 PRINTOUT  PRINTOUT  SAVE    SAVE
 ----------------------------------
     0         0       0       0



 STREAM LISTING     PERIOD      1   STEP      182

 LAYER ROW COL. STREAM  RCH.  FLOW INTO     FLOW TO   FLOW OUT OF   OVRLND.     DIRECT     STREAM       STREAM     STREAM     STREAM   STREAMBED  STREAMBED
                SEG.NO.  NO.  STRM. RCH.    AQUIFER    STRM. RCH.    RUNOFF     PRECIP       ET          HEAD       DEPTH      WIDTH   CONDCTNC.   GRADIENT

   1    2    5     1     1    6.9120E+05 -8.0029E+04   7.7123E+05  0.000E+00  0.000E+00  0.000E+00  1.25330E+02  1.382E+00  5.000E+00  5.000E+03 -3.201E+01
   1    3    5     1     2    7.7123E+05 -5.6362E+04   8.2759E+05  0.000E+00  0.000E+00  0.000E+00  1.24303E+02  1.458E+00  5.000E+00  5.000E+03 -2.254E+01
   1    4    5     1     3    8.2759E+05 -5.3360E+04   8.8095E+05  0.000E+00  0.000E+00  0.000E+00  1.23258E+02  1.517E+00  5.000E+00  5.000E+03 -2.134E+01
   1    4    6     1     4    8.8095E+05 -4.3618E+04   9.2457E+05  0.000E+00  0.000E+00  0.000E+00  1.22206E+02  1.568E+00  5.000E+00  5.000E+03 -1.745E+01
   1    4    7     1     5    9.2457E+05 -2.1236E+04   9.4580E+05  0.000E+00  0.000E+00  0.000E+00  1.21412E+02  1.602E+00  5.000E+00  2.500E+03 -1.699E+01
   1    4    8     1     6    9.4580E+05 -3.4872E+04   9.8068E+05  0.000E+00  0.000E+00  0.000E+00  1.20751E+02  1.630E+00  5.000E+00  3.750E+03 -1.860E+01
   1    5    8     1     7    9.8068E+05 -3.6822E+04   1.0175E+06  0.000E+00  0.000E+00  0.000E+00  1.19822E+02  1.667E+00  5.000E+00  5.000E+03 -1.473E+01
   1    6    8     1     8    1.0175E+06 -2.5370E+04   1.0429E+06  0.000E+00  0.000E+00  0.000E+00  1.18749E+02  1.697E+00  5.000E+00  5.000E+03 -1.015E+01
   1   12    9     2     1    1.3471E+06 -2.7286E+04   1.3744E+06  0.000E+00  0.000E+00  0.000E+00  1.16632E+02  2.192E+00  5.000E+00  5.000E+03 -1.091E+01
   1   13    9     2     2    1.3744E+06 -4.2986E+04   1.4174E+06  0.000E+00  0.000E+00  0.000E+00  1.15845E+02  2.226E+00  5.000E+00  5.000E+03 -1.719E+01
   1   14   10     2     3    1.4174E+06 -2.3210E+04   1.4406E+06  0.000E+00  0.000E+00  0.000E+00  1.15237E+02  2.258E+00  5.000E+00  2.795E+03 -1.661E+01
   1   14   10     2     4    1.4406E+06 -2.4430E+04   1.4650E+06  0.000E+00  0.000E+00  0.000E+00  1.14801E+02  2.280E+00  5.000E+00  2.795E+03 -1.748E+01
   1   15   10     2     5    1.4650E+06 -4.1048E+04   1.5061E+06  0.000E+00  0.000E+00  0.000E+00  1.14192E+02  2.311E+00  5.000E+00  5.000E+03 -1.642E+01
   1   16   10     2     6    1.5061E+06 -2.7431E+04   1.5335E+06  0.000E+00  0.000E+00  0.000E+00  1.13403E+02  2.343E+00  5.000E+00  5.000E+03 -1.097E+01
   1   22   10     3     1    1.8639E+06 -2.7840E+04   1.8917E+06  0.000E+00  0.000E+00  0.000E+00  1.11504E+02  2.549E+00  5.000E+00  5.000E+03 -1.114E+01
   1   23   10     3     2    1.8917E+06 -4.0100E+04   1.9318E+06  0.000E+00  0.000E+00  0.000E+00  1.10704E+02  2.576E+00  5.000E+00  3.750E+03 -2.139E+01
   1   23   11     3     3    1.9318E+06 -2.3766E+04   1.9556E+06  0.000E+00  0.000E+00  0.000E+00  1.10139E+02  2.602E+00  5.000E+00  2.500E+03 -1.901E+01
   1   23   12     3     4    1.9556E+06 -4.7157E+04   2.0027E+06  0.000E+00  0.000E+00  0.000E+00  1.09458E+02  2.630E+00  5.000E+00  5.000E+03 -1.886E+01
   1   23   13     3     5    2.0027E+06 -5.0800E+04   2.0535E+06  0.000E+00  0.000E+00  0.000E+00  1.08551E+02  2.669E+00  5.000E+00  5.000E+03 -2.032E+01
   1   23   14     3     6    2.0535E+06 -5.4516E+04   2.1080E+06  0.000E+00  0.000E+00  0.000E+00  1.07647E+02  2.711E+00  5.000E+00  5.000E+03 -2.181E+01
   1   23   15     3     7    2.1080E+06 -6.1860E+04   2.1699E+06  0.000E+00  0.000E+00  0.000E+00  1.06746E+02  2.756E+00  5.000E+00  5.000E+03 -2.474E+01
   1   23   16     3     8    2.1699E+06 -9.0028E+04   2.2599E+06  0.000E+00  0.000E+00  0.000E+00  1.05858E+02  2.814E+00  5.000E+00  5.000E+03 -3.601E+01





     0  LAKE CELLS ARE DRY.

 PERIOD     1     TIME STEP   182     TIME STEP LENGTH  1.0808E+01
 PERIOD TIME  1.2960E+03     TOTAL SIMULATION TIME  1.2960E+03


                 HYDROLOGIC BUDGET SUMMARIES FOR SIMULATED LAKES
     (ALL FLUID FLUXES ARE VOLUMES ADDED TO THE LAKE DURING PRESENT TIME STEP)
     -------------------------------------------------------------------------
 LAKE    STAGE         VOLUME     VOL.CHANGE      PRECIP     EVAPORATION        RUNOFF
   1   117.0290     8.5181E+07    5.6000E+01    7.8356E+05    6.9575E+05    0.0000E+00
   2   111.9659     5.3536E+07    1.4400E+02    7.8356E+05    6.9575E+05    0.0000E+00

            GROUND WATER            SURFACE WATER        WATER
 LAKE    INFLOW     OUTFLOW      INFLOW     OUTFLOW       USE
   1  3.2006E+06  0.0000E+00  1.1271E+07  1.4559E+07  0.0000E+00
   2  3.4825E+06  0.0000E+00  1.6574E+07  2.0144E+07  0.0000E+00

      CONNECTED LAKE   TIME-STEP         STAGE-CHANGE          PERCENT
 LAKE    INFLUX      SURFACE AREA   TIME STEP  CUMULATIVE    DISCREPANCY
   1   0.0000E+00     6.2500E+06   9.0205E-06 -1.2971E+01       0.000
   2   0.0000E+00     6.2500E+06   2.2963E-05 -1.8034E+01       0.000
 --------------------------------------------------------------------------------



            CUMULATIVE HYDROLOGIC BUDGET SUMMARIES FOR SIMULATED LAKES
     (ALL FLUID FLUXES ARE SUMS OF VOLUMES ADDED TO THE LAKE SINCE INITIAL TIME)
     ---------------------------------------------------------------------------
 LAKE       PRECIP       EVAP       RUNOFF
   1     9.3956E+07  8.3427E+07  0.0000E+00
   2     9.3956E+07  8.3427E+07  0.0000E+00

            GROUND WATER            SURFACE WATER
 LAKE    INFLOW     OUTFLOW      INFLOW     OUTFLOW
   1  3.0743E+08  1.5644E+06  1.2849E+09  1.6823E+09
   2  3.4262E+08  1.4259E+06  1.8791E+09  2.3435E+09

         WATER    CONNECTED LAKE   CHANGE       PERCENT
 LAKE     USE         INFLUX       IN VOL.    DISCREPANCY
   1   0.0000E+00   0.0000E+00  -8.1068E+07      0.000
   2   0.0000E+00   0.0000E+00  -1.1271E+08      0.000
 --------------------------------------------------------------------------------

 
 SOLVING FOR HEAD 
     3 ITERATIONS FOR TIME STEP 183 IN STRESS PERIOD    1

 HEAD/DRAWDOWN PRINTOUT FLAG = 0     TOTAL BUDGET PRINTOUT FLAG = 0
 CELL-BY-CELL FLOW TERM FLAG = 1

 OUTPUT FLAGS FOR ALL LAYERS ARE THE SAME:
   HEAD    DRAWDOWN  HEAD  DRAWDOWN
 PRINTOUT  PRINTOUT  SAVE    SAVE
 ----------------------------------
     0         0       0       0



 STREAM LISTING     PERIOD      1   STEP      183

 LAYER ROW COL. STREAM  RCH.  FLOW INTO     FLOW TO   FLOW OUT OF   OVRLND.     DIRECT     STREAM       STREAM     STREAM     STREAM   STREAMBED  STREAMBED
                SEG.NO.  NO.  STRM. RCH.    AQUIFER    STRM. RCH.    RUNOFF     PRECIP       ET          HEAD       DEPTH      WIDTH   CONDCTNC.   GRADIENT

   1    2    5     1     1    6.9120E+05 -8.0029E+04   7.7123E+05  0.000E+00  0.000E+00  0.000E+00  1.25330E+02  1.382E+00  5.000E+00  5.000E+03 -3.201E+01
   1    3    5     1     2    7.7123E+05 -5.6362E+04   8.2759E+05  0.000E+00  0.000E+00  0.000E+00  1.24303E+02  1.458E+00  5.000E+00  5.000E+03 -2.254E+01
   1    4    5     1     3    8.2759E+05 -5.3360E+04   8.8095E+05  0.000E+00  0.000E+00  0.000E+00  1.23258E+02  1.517E+00  5.000E+00  5.000E+03 -2.134E+01
   1    4    6     1     4    8.8095E+05 -4.3618E+04   9.2457E+05  0.000E+00  0.000E+00  0.000E+00  1.22206E+02  1.568E+00  5.000E+00  5.000E+03 -1.745E+01
   1    4    7     1     5    9.2457E+05 -2.1236E+04   9.4581E+05  0.000E+00  0.000E+00  0.000E+00  1.21412E+02  1.602E+00  5.000E+00  2.500E+03 -1.699E+01
   1    4    8     1     6    9.4581E+05 -3.4872E+04   9.8068E+05  0.000E+00  0.000E+00  0.000E+00  1.20751E+02  1.630E+00  5.000E+00  3.750E+03 -1.860E+01
   1    5    8     1     7    9.8068E+05 -3.6822E+04   1.0175E+06  0.000E+00  0.000E+00  0.000E+00  1.19822E+02  1.667E+00  5.000E+00  5.000E+03 -1.473E+01
   1    6    8     1     8    1.0175E+06 -2.5370E+04   1.0429E+06  0.000E+00  0.000E+00  0.000E+00  1.18749E+02  1.697E+00  5.000E+00  5.000E+03 -1.015E+01
   1   12    9     2     1    1.3471E+06 -2.7287E+04   1.3744E+06  0.000E+00  0.000E+00  0.000E+00  1.16632E+02  2.192E+00  5.000E+00  5.000E+03 -1.091E+01
   1   13    9     2     2    1.3744E+06 -4.2988E+04   1.4174E+06  0.000E+00  0.000E+00  0.000E+00  1.15845E+02  2.226E+00  5.000E+00  5.000E+03 -1.720E+01
   1   14   10     2     3    1.4174E+06 -2.3211E+04   1.4406E+06  0.000E+00  0.000E+00  0.000E+00  1.15237E+02  2.258E+00  5.000E+00  2.795E+03 -1.661E+01
   1   14   10     2     4    1.4406E+06 -2.4430E+04   1.4651E+06  0.000E+00  0.000E+00  0.000E+00  1.14801E+02  2.280E+00  5.000E+00  2.795E+03 -1.748E+01
   1   15   10     2     5    1.4651E+06 -4.1050E+04   1.5061E+06  0.000E+00  0.000E+00  0.000E+00  1.14192E+02  2.311E+00  5.000E+00  5.000E+03 -1.642E+01
   1   16   10     2     6    1.5061E+06 -2.7432E+04   1.5335E+06  0.000E+00  0.000E+00  0.000E+00  1.13403E+02  2.343E+00  5.000E+00  5.000E+03 -1.097E+01
   1   22   10     3     1    1.8639E+06 -2.7841E+04   1.8917E+06  0.000E+00  0.000E+00  0.000E+00  1.11504E+02  2.549E+00  5.000E+00  5.000E+03 -1.114E+01
   1   23   10     3     2    1.8917E+06 -4.0100E+04   1.9318E+06  0.000E+00  0.000E+00  0.000E+00  1.10704E+02  2.576E+00  5.000E+00  3.750E+03 -2.139E+01
   1   23   11     3     3    1.9318E+06 -2.3767E+04   1.9556E+06  0.000E+00  0.000E+00  0.000E+00  1.10139E+02  2.602E+00  5.000E+00  2.500E+03 -1.901E+01
   1   23   12     3     4    1.9556E+06 -4.7157E+04   2.0027E+06  0.000E+00  0.000E+00  0.000E+00  1.09458E+02  2.630E+00  5.000E+00  5.000E+03 -1.886E+01
   1   23   13     3     5    2.0027E+06 -5.0800E+04   2.0535E+06  0.000E+00  0.000E+00  0.000E+00  1.08551E+02  2.669E+00  5.000E+00  5.000E+03 -2.032E+01
   1   23   14     3     6    2.0535E+06 -5.4516E+04   2.1081E+06  0.000E+00  0.000E+00  0.000E+00  1.07647E+02  2.711E+00  5.000E+00  5.000E+03 -2.181E+01
   1   23   15     3     7    2.1081E+06 -6.1860E+04   2.1699E+06  0.000E+00  0.000E+00  0.000E+00  1.06746E+02  2.756E+00  5.000E+00  5.000E+03 -2.474E+01
   1   23   16     3     8    2.1699E+06 -9.0028E+04   2.2599E+06  0.000E+00  0.000E+00  0.000E+00  1.05858E+02  2.814E+00  5.000E+00  5.000E+03 -3.601E+01





     0  LAKE CELLS ARE DRY.

 PERIOD     1     TIME STEP   183     TIME STEP LENGTH  1.0862E+01
 PERIOD TIME  1.3068E+03     TOTAL SIMULATION TIME  1.3068E+03


                 HYDROLOGIC BUDGET SUMMARIES FOR SIMULATED LAKES
     (ALL FLUID FLUXES ARE VOLUMES ADDED TO THE LAKE DURING PRESENT TIME STEP)
     -------------------------------------------------------------------------
 LAKE    STAGE         VOLUME     VOL.CHANGE      PRECIP     EVAPORATION        RUNOFF
   1   117.0290     8.5181E+07    6.4000E+01    7.8748E+05    6.9923E+05    0.0000E+00
   2   111.9659     5.3536E+07    1.3600E+02    7.8748E+05    6.9923E+05    0.0000E+00

            GROUND WATER            SURFACE WATER        WATER
 LAKE    INFLOW     OUTFLOW      INFLOW     OUTFLOW       USE
   1  3.2167E+06  0.0000E+00  1.1327E+07  1.4632E+07  0.0000E+00
   2  3.5000E+06  0.0000E+00  1.6657E+07  2.0245E+07  0.0000E+00

      CONNECTED LAKE   TIME-STEP         STAGE-CHANGE          PERCENT
 LAKE    INFLUX      SURFACE AREA   TIME STEP  CUMULATIVE    DISCREPANCY
   1   0.0000E+00     6.2500E+06   1.0423E-05 -1.2971E+01       0.000
   2   0.0000E+00     6.2500E+06   2.1938E-05 -1.8034E+01       0.000
 --------------------------------------------------------------------------------



            CUMULATIVE HYDROLOGIC BUDGET SUMMARIES FOR SIMULATED LAKES
     (ALL FLUID FLUXES ARE SUMS OF VOLUMES ADDED TO THE LAKE SINCE INITIAL TIME)
     ---------------------------------------------------------------------------
 LAKE       PRECIP       EVAP       RUNOFF
   1     9.4744E+07  8.4126E+07  0.0000E+00
   2     9.4744E+07  8.4126E+07  0.0000E+00

            GROUND WATER            SURFACE WATER
 LAKE    INFLOW     OUTFLOW      INFLOW     OUTFLOW
   1  3.1065E+08  1.5644E+06  1.2962E+09  1.6970E+09
   2  3.4612E+08  1.4259E+06  1.8957E+09  2.3637E+09

         WATER    CONNECTED LAKE   CHANGE       PERCENT
 LAKE     USE         INFLUX       IN VOL.    DISCREPANCY
   1   0.0000E+00   0.0000E+00  -8.1068E+07      0.000
   2   0.0000E+00   0.0000E+00  -1.1271E+08      0.000
 --------------------------------------------------------------------------------

 
 SOLVING FOR HEAD 
     3 ITERATIONS FOR TIME STEP 184 IN STRESS PERIOD    1

 HEAD/DRAWDOWN PRINTOUT FLAG = 0     TOTAL BUDGET PRINTOUT FLAG = 0
 CELL-BY-CELL FLOW TERM FLAG = 1

 OUTPUT FLAGS FOR ALL LAYERS ARE THE SAME:
   HEAD    DRAWDOWN  HEAD  DRAWDOWN
 PRINTOUT  PRINTOUT  SAVE    SAVE
 ----------------------------------
     0         0       0       0



 STREAM LISTING     PERIOD      1   STEP      184

 LAYER ROW COL. STREAM  RCH.  FLOW INTO     FLOW TO   FLOW OUT OF   OVRLND.     DIRECT     STREAM       STREAM     STREAM     STREAM   STREAMBED  STREAMBED
                SEG.NO.  NO.  STRM. RCH.    AQUIFER    STRM. RCH.    RUNOFF     PRECIP       ET          HEAD       DEPTH      WIDTH   CONDCTNC.   GRADIENT

   1    2    5     1     1    6.9120E+05 -8.0029E+04   7.7123E+05  0.000E+00  0.000E+00  0.000E+00  1.25330E+02  1.382E+00  5.000E+00  5.000E+03 -3.201E+01
   1    3    5     1     2    7.7123E+05 -5.6362E+04   8.2759E+05  0.000E+00  0.000E+00  0.000E+00  1.24303E+02  1.458E+00  5.000E+00  5.000E+03 -2.254E+01
   1    4    5     1     3    8.2759E+05 -5.3361E+04   8.8095E+05  0.000E+00  0.000E+00  0.000E+00  1.23258E+02  1.517E+00  5.000E+00  5.000E+03 -2.134E+01
   1    4    6     1     4    8.8095E+05 -4.3619E+04   9.2457E+05  0.000E+00  0.000E+00  0.000E+00  1.22206E+02  1.568E+00  5.000E+00  5.000E+03 -1.745E+01
   1    4    7     1     5    9.2457E+05 -2.1237E+04   9.4581E+05  0.000E+00  0.000E+00  0.000E+00  1.21412E+02  1.602E+00  5.000E+00  2.500E+03 -1.699E+01
   1    4    8     1     6    9.4581E+05 -3.4872E+04   9.8068E+05  0.000E+00  0.000E+00  0.000E+00  1.20751E+02  1.630E+00  5.000E+00  3.750E+03 -1.860E+01
   1    5    8     1     7    9.8068E+05 -3.6823E+04   1.0175E+06  0.000E+00  0.000E+00  0.000E+00  1.19822E+02  1.667E+00  5.000E+00  5.000E+03 -1.473E+01
   1    6    8     1     8    1.0175E+06 -2.5371E+04   1.0429E+06  0.000E+00  0.000E+00  0.000E+00  1.18749E+02  1.697E+00  5.000E+00  5.000E+03 -1.015E+01
   1   12    9     2     1    1.3471E+06 -2.7288E+04   1.3744E+06  0.000E+00  0.000E+00  0.000E+00  1.16632E+02  2.192E+00  5.000E+00  5.000E+03 -1.092E+01
   1   13    9     2     2    1.3744E+06 -4.2989E+04   1.4174E+06  0.000E+00  0.000E+00  0.000E+00  1.15845E+02  2.226E+00  5.000E+00  5.000E+03 -1.720E+01
   1   14   10     2     3    1.4174E+06 -2.3212E+04   1.4406E+06  0.000E+00  0.000E+00  0.000E+00  1.15237E+02  2.258E+00  5.000E+00  2.795E+03 -1.661E+01
   1   14   10     2     4    1.4406E+06 -2.4431E+04   1.4651E+06  0.000E+00  0.000E+00  0.000E+00  1.14801E+02  2.280E+00  5.000E+00  2.795E+03 -1.748E+01
   1   15   10     2     5    1.4651E+06 -4.1051E+04   1.5061E+06  0.000E+00  0.000E+00  0.000E+00  1.14192E+02  2.311E+00  5.000E+00  5.000E+03 -1.642E+01
   1   16   10     2     6    1.5061E+06 -2.7433E+04   1.5335E+06  0.000E+00  0.000E+00  0.000E+00  1.13403E+02  2.343E+00  5.000E+00  5.000E+03 -1.097E+01
   1   22   10     3     1    1.8639E+06 -2.7841E+04   1.8917E+06  0.000E+00  0.000E+00  0.000E+00  1.11504E+02  2.549E+00  5.000E+00  5.000E+03 -1.114E+01
   1   23   10     3     2    1.8917E+06 -4.0101E+04   1.9318E+06  0.000E+00  0.000E+00  0.000E+00  1.10704E+02  2.576E+00  5.000E+00  3.750E+03 -2.139E+01
   1   23   11     3     3    1.9318E+06 -2.3767E+04   1.9556E+06  0.000E+00  0.000E+00  0.000E+00  1.10139E+02  2.602E+00  5.000E+00  2.500E+03 -1.901E+01
   1   23   12     3     4    1.9556E+06 -4.7158E+04   2.0028E+06  0.000E+00  0.000E+00  0.000E+00  1.09458E+02  2.630E+00  5.000E+00  5.000E+03 -1.886E+01
   1   23   13     3     5    2.0028E+06 -5.0801E+04   2.0536E+06  0.000E+00  0.000E+00  0.000E+00  1.08551E+02  2.669E+00  5.000E+00  5.000E+03 -2.032E+01
   1   23   14     3     6    2.0536E+06 -5.4517E+04   2.1081E+06  0.000E+00  0.000E+00  0.000E+00  1.07647E+02  2.711E+00  5.000E+00  5.000E+03 -2.181E+01
   1   23   15     3     7    2.1081E+06 -6.1861E+04   2.1699E+06  0.000E+00  0.000E+00  0.000E+00  1.06746E+02  2.756E+00  5.000E+00  5.000E+03 -2.474E+01
   1   23   16     3     8    2.1699E+06 -9.0028E+04   2.2600E+06  0.000E+00  0.000E+00  0.000E+00  1.05859E+02  2.814E+00  5.000E+00  5.000E+03 -3.601E+01





     0  LAKE CELLS ARE DRY.

 PERIOD     1     TIME STEP   184     TIME STEP LENGTH  1.0916E+01
 PERIOD TIME  1.3177E+03     TOTAL SIMULATION TIME  1.3177E+03


                 HYDROLOGIC BUDGET SUMMARIES FOR SIMULATED LAKES
     (ALL FLUID FLUXES ARE VOLUMES ADDED TO THE LAKE DURING PRESENT TIME STEP)
     -------------------------------------------------------------------------
 LAKE    STAGE         VOLUME     VOL.CHANGE      PRECIP     EVAPORATION        RUNOFF
   1   117.0290     8.5181E+07    4.8000E+01    7.9142E+05    7.0273E+05    0.0000E+00
   2   111.9660     5.3536E+07    1.0800E+02    7.9142E+05    7.0273E+05    0.0000E+00

            GROUND WATER            SURFACE WATER        WATER
 LAKE    INFLOW     OUTFLOW      INFLOW     OUTFLOW       USE
   1  3.2328E+06  0.0000E+00  1.1384E+07  1.4706E+07  0.0000E+00
   2  3.5176E+06  0.0000E+00  1.6740E+07  2.0347E+07  0.0000E+00

      CONNECTED LAKE   TIME-STEP         STAGE-CHANGE          PERCENT
 LAKE    INFLUX      SURFACE AREA   TIME STEP  CUMULATIVE    DISCREPANCY
   1   0.0000E+00     6.2500E+06   7.0915E-06 -1.2971E+01       0.000
   2   0.0000E+00     6.2500E+06   1.7299E-05 -1.8034E+01       0.000
 --------------------------------------------------------------------------------



            CUMULATIVE HYDROLOGIC BUDGET SUMMARIES FOR SIMULATED LAKES
     (ALL FLUID FLUXES ARE SUMS OF VOLUMES ADDED TO THE LAKE SINCE INITIAL TIME)
     ---------------------------------------------------------------------------
 LAKE       PRECIP       EVAP       RUNOFF
   1     9.5535E+07  8.4829E+07  0.0000E+00
   2     9.5535E+07  8.4829E+07  0.0000E+00

            GROUND WATER            SURFACE WATER
 LAKE    INFLOW     OUTFLOW      INFLOW     OUTFLOW
   1  3.1388E+08  1.5644E+06  1.3076E+09  1.7117E+09
   2  3.4963E+08  1.4259E+06  1.9125E+09  2.3841E+09

         WATER    CONNECTED LAKE   CHANGE       PERCENT
 LAKE     USE         INFLUX       IN VOL.    DISCREPANCY
   1   0.0000E+00   0.0000E+00  -8.1068E+07      0.000
   2   0.0000E+00   0.0000E+00  -1.1271E+08      0.000
 --------------------------------------------------------------------------------

 
 SOLVING FOR HEAD 
     3 ITERATIONS FOR TIME STEP 185 IN STRESS PERIOD    1

 HEAD/DRAWDOWN PRINTOUT FLAG = 0     TOTAL BUDGET PRINTOUT FLAG = 0
 CELL-BY-CELL FLOW TERM FLAG = 1

 OUTPUT FLAGS FOR ALL LAYERS ARE THE SAME:
   HEAD    DRAWDOWN  HEAD  DRAWDOWN
 PRINTOUT  PRINTOUT  SAVE    SAVE
 ----------------------------------
     0         0       0       0



 STREAM LISTING     PERIOD      1   STEP      185

 LAYER ROW COL. STREAM  RCH.  FLOW INTO     FLOW TO   FLOW OUT OF   OVRLND.     DIRECT     STREAM       STREAM     STREAM     STREAM   STREAMBED  STREAMBED
                SEG.NO.  NO.  STRM. RCH.    AQUIFER    STRM. RCH.    RUNOFF     PRECIP       ET          HEAD       DEPTH      WIDTH   CONDCTNC.   GRADIENT

   1    2    5     1     1    6.9120E+05 -8.0029E+04   7.7123E+05  0.000E+00  0.000E+00  0.000E+00  1.25330E+02  1.382E+00  5.000E+00  5.000E+03 -3.201E+01
   1    3    5     1     2    7.7123E+05 -5.6362E+04   8.2759E+05  0.000E+00  0.000E+00  0.000E+00  1.24303E+02  1.458E+00  5.000E+00  5.000E+03 -2.254E+01
   1    4    5     1     3    8.2759E+05 -5.3361E+04   8.8095E+05  0.000E+00  0.000E+00  0.000E+00  1.23258E+02  1.517E+00  5.000E+00  5.000E+03 -2.134E+01
   1    4    6     1     4    8.8095E+05 -4.3619E+04   9.2457E+05  0.000E+00  0.000E+00  0.000E+00  1.22206E+02  1.568E+00  5.000E+00  5.000E+03 -1.745E+01
   1    4    7     1     5    9.2457E+05 -2.1237E+04   9.4581E+05  0.000E+00  0.000E+00  0.000E+00  1.21412E+02  1.602E+00  5.000E+00  2.500E+03 -1.699E+01
   1    4    8     1     6    9.4581E+05 -3.4872E+04   9.8068E+05  0.000E+00  0.000E+00  0.000E+00  1.20751E+02  1.630E+00  5.000E+00  3.750E+03 -1.860E+01
   1    5    8     1     7    9.8068E+05 -3.6823E+04   1.0175E+06  0.000E+00  0.000E+00  0.000E+00  1.19822E+02  1.667E+00  5.000E+00  5.000E+03 -1.473E+01
   1    6    8     1     8    1.0175E+06 -2.5371E+04   1.0429E+06  0.000E+00  0.000E+00  0.000E+00  1.18749E+02  1.697E+00  5.000E+00  5.000E+03 -1.015E+01
   1   12    9     2     1    1.3472E+06 -2.7289E+04   1.3744E+06  0.000E+00  0.000E+00  0.000E+00  1.16632E+02  2.192E+00  5.000E+00  5.000E+03 -1.092E+01
   1   13    9     2     2    1.3744E+06 -4.2991E+04   1.4174E+06  0.000E+00  0.000E+00  0.000E+00  1.15845E+02  2.226E+00  5.000E+00  5.000E+03 -1.720E+01
   1   14   10     2     3    1.4174E+06 -2.3213E+04   1.4406E+06  0.000E+00  0.000E+00  0.000E+00  1.15237E+02  2.258E+00  5.000E+00  2.795E+03 -1.661E+01
   1   14   10     2     4    1.4406E+06 -2.4432E+04   1.4651E+06  0.000E+00  0.000E+00  0.000E+00  1.14801E+02  2.280E+00  5.000E+00  2.795E+03 -1.748E+01
   1   15   10     2     5    1.4651E+06 -4.1053E+04   1.5061E+06  0.000E+00  0.000E+00  0.000E+00  1.14192E+02  2.311E+00  5.000E+00  5.000E+03 -1.642E+01
   1   16   10     2     6    1.5061E+06 -2.7434E+04   1.5336E+06  0.000E+00  0.000E+00  0.000E+00  1.13403E+02  2.343E+00  5.000E+00  5.000E+03 -1.097E+01
   1   22   10     3     1    1.8639E+06 -2.7842E+04   1.8918E+06  0.000E+00  0.000E+00  0.000E+00  1.11504E+02  2.549E+00  5.000E+00  5.000E+03 -1.114E+01
   1   23   10     3     2    1.8918E+06 -4.0101E+04   1.9319E+06  0.000E+00  0.000E+00  0.000E+00  1.10704E+02  2.576E+00  5.000E+00  3.750E+03 -2.139E+01
   1   23   11     3     3    1.9319E+06 -2.3767E+04   1.9556E+06  0.000E+00  0.000E+00  0.000E+00  1.10139E+02  2.602E+00  5.000E+00  2.500E+03 -1.901E+01
   1   23   12     3     4    1.9556E+06 -4.7158E+04   2.0028E+06  0.000E+00  0.000E+00  0.000E+00  1.09458E+02  2.630E+00  5.000E+00  5.000E+03 -1.886E+01
   1   23   13     3     5    2.0028E+06 -5.0801E+04   2.0536E+06  0.000E+00  0.000E+00  0.000E+00  1.08551E+02  2.669E+00  5.000E+00  5.000E+03 -2.032E+01
   1   23   14     3     6    2.0536E+06 -5.4517E+04   2.1081E+06  0.000E+00  0.000E+00  0.000E+00  1.07647E+02  2.711E+00  5.000E+00  5.000E+03 -2.181E+01
   1   23   15     3     7    2.1081E+06 -6.1861E+04   2.1700E+06  0.000E+00  0.000E+00  0.000E+00  1.06746E+02  2.756E+00  5.000E+00  5.000E+03 -2.474E+01
   1   23   16     3     8    2.1700E+06 -9.0028E+04   2.2600E+06  0.000E+00  0.000E+00  0.000E+00  1.05859E+02  2.814E+00  5.000E+00  5.000E+03 -3.601E+01





     0  LAKE CELLS ARE DRY.

 PERIOD     1     TIME STEP   185     TIME STEP LENGTH  1.0971E+01
 PERIOD TIME  1.3287E+03     TOTAL SIMULATION TIME  1.3287E+03


                 HYDROLOGIC BUDGET SUMMARIES FOR SIMULATED LAKES
     (ALL FLUID FLUXES ARE VOLUMES ADDED TO THE LAKE DURING PRESENT TIME STEP)
     -------------------------------------------------------------------------
 LAKE    STAGE         VOLUME     VOL.CHANGE      PRECIP     EVAPORATION        RUNOFF
   1   117.0291     8.5181E+07    5.6000E+01    7.9538E+05    7.0624E+05    0.0000E+00
   2   111.9660     5.3536E+07    1.0800E+02    7.9538E+05    7.0624E+05    0.0000E+00

            GROUND WATER            SURFACE WATER        WATER
 LAKE    INFLOW     OUTFLOW      INFLOW     OUTFLOW       USE
   1  3.2491E+06  0.0000E+00  1.1441E+07  1.4779E+07  0.0000E+00
   2  3.5353E+06  0.0000E+00  1.6824E+07  2.0449E+07  0.0000E+00

      CONNECTED LAKE   TIME-STEP         STAGE-CHANGE          PERCENT
 LAKE    INFLUX      SURFACE AREA   TIME STEP  CUMULATIVE    DISCREPANCY
   1   0.0000E+00     6.2500E+06   9.5405E-06 -1.2971E+01       0.000
   2   0.0000E+00     6.2500E+06   1.7550E-05 -1.8034E+01       0.000
 --------------------------------------------------------------------------------



            CUMULATIVE HYDROLOGIC BUDGET SUMMARIES FOR SIMULATED LAKES
     (ALL FLUID FLUXES ARE SUMS OF VOLUMES ADDED TO THE LAKE SINCE INITIAL TIME)
     ---------------------------------------------------------------------------
 LAKE       PRECIP       EVAP       RUNOFF
   1     9.6331E+07  8.5535E+07  0.0000E+00
   2     9.6331E+07  8.5535E+07  0.0000E+00

            GROUND WATER            SURFACE WATER
 LAKE    INFLOW     OUTFLOW      INFLOW     OUTFLOW
   1  3.1713E+08  1.5644E+06  1.3190E+09  1.7265E+09
   2  3.5317E+08  1.4259E+06  1.9293E+09  2.4045E+09

         WATER    CONNECTED LAKE   CHANGE       PERCENT
 LAKE     USE         INFLUX       IN VOL.    DISCREPANCY
   1   0.0000E+00   0.0000E+00  -8.1068E+07      0.000
   2   0.0000E+00   0.0000E+00  -1.1271E+08      0.000
 --------------------------------------------------------------------------------

 
 SOLVING FOR HEAD 
     3 ITERATIONS FOR TIME STEP 186 IN STRESS PERIOD    1

 HEAD/DRAWDOWN PRINTOUT FLAG = 0     TOTAL BUDGET PRINTOUT FLAG = 0
 CELL-BY-CELL FLOW TERM FLAG = 1

 OUTPUT FLAGS FOR ALL LAYERS ARE THE SAME:
   HEAD    DRAWDOWN  HEAD  DRAWDOWN
 PRINTOUT  PRINTOUT  SAVE    SAVE
 ----------------------------------
     0         0       0       0



 STREAM LISTING     PERIOD      1   STEP      186

 LAYER ROW COL. STREAM  RCH.  FLOW INTO     FLOW TO   FLOW OUT OF   OVRLND.     DIRECT     STREAM       STREAM     STREAM     STREAM   STREAMBED  STREAMBED
                SEG.NO.  NO.  STRM. RCH.    AQUIFER    STRM. RCH.    RUNOFF     PRECIP       ET          HEAD       DEPTH      WIDTH   CONDCTNC.   GRADIENT

   1    2    5     1     1    6.9120E+05 -8.0029E+04   7.7123E+05  0.000E+00  0.000E+00  0.000E+00  1.25330E+02  1.382E+00  5.000E+00  5.000E+03 -3.201E+01
   1    3    5     1     2    7.7123E+05 -5.6362E+04   8.2759E+05  0.000E+00  0.000E+00  0.000E+00  1.24303E+02  1.458E+00  5.000E+00  5.000E+03 -2.254E+01
   1    4    5     1     3    8.2759E+05 -5.3361E+04   8.8095E+05  0.000E+00  0.000E+00  0.000E+00  1.23258E+02  1.517E+00  5.000E+00  5.000E+03 -2.134E+01
   1    4    6     1     4    8.8095E+05 -4.3619E+04   9.2457E+05  0.000E+00  0.000E+00  0.000E+00  1.22206E+02  1.568E+00  5.000E+00  5.000E+03 -1.745E+01
   1    4    7     1     5    9.2457E+05 -2.1237E+04   9.4581E+05  0.000E+00  0.000E+00  0.000E+00  1.21412E+02  1.602E+00  5.000E+00  2.500E+03 -1.699E+01
   1    4    8     1     6    9.4581E+05 -3.4873E+04   9.8068E+05  0.000E+00  0.000E+00  0.000E+00  1.20751E+02  1.630E+00  5.000E+00  3.750E+03 -1.860E+01
   1    5    8     1     7    9.8068E+05 -3.6823E+04   1.0175E+06  0.000E+00  0.000E+00  0.000E+00  1.19822E+02  1.667E+00  5.000E+00  5.000E+03 -1.473E+01
   1    6    8     1     8    1.0175E+06 -2.5371E+04   1.0429E+06  0.000E+00  0.000E+00  0.000E+00  1.18749E+02  1.697E+00  5.000E+00  5.000E+03 -1.015E+01
   1   12    9     2     1    1.3472E+06 -2.7289E+04   1.3744E+06  0.000E+00  0.000E+00  0.000E+00  1.16632E+02  2.192E+00  5.000E+00  5.000E+03 -1.092E+01
   1   13    9     2     2    1.3744E+06 -4.2992E+04   1.4174E+06  0.000E+00  0.000E+00  0.000E+00  1.15845E+02  2.226E+00  5.000E+00  5.000E+03 -1.720E+01
   1   14   10     2     3    1.4174E+06 -2.3214E+04   1.4407E+06  0.000E+00  0.000E+00  0.000E+00  1.15237E+02  2.258E+00  5.000E+00  2.795E+03 -1.661E+01
   1   14   10     2     4    1.4407E+06 -2.4433E+04   1.4651E+06  0.000E+00  0.000E+00  0.000E+00  1.14801E+02  2.280E+00  5.000E+00  2.795E+03 -1.748E+01
   1   15   10     2     5    1.4651E+06 -4.1054E+04   1.5061E+06  0.000E+00  0.000E+00  0.000E+00  1.14192E+02  2.311E+00  5.000E+00  5.000E+03 -1.642E+01
   1   16   10     2     6    1.5061E+06 -2.7434E+04   1.5336E+06  0.000E+00  0.000E+00  0.000E+00  1.13403E+02  2.343E+00  5.000E+00  5.000E+03 -1.097E+01
   1   22   10     3     1    1.8639E+06 -2.7842E+04   1.8918E+06  0.000E+00  0.000E+00  0.000E+00  1.11504E+02  2.549E+00  5.000E+00  5.000E+03 -1.114E+01
   1   23   10     3     2    1.8918E+06 -4.0101E+04   1.9319E+06  0.000E+00  0.000E+00  0.000E+00  1.10704E+02  2.576E+00  5.000E+00  3.750E+03 -2.139E+01
   1   23   11     3     3    1.9319E+06 -2.3767E+04   1.9557E+06  0.000E+00  0.000E+00  0.000E+00  1.10139E+02  2.602E+00  5.000E+00  2.500E+03 -1.901E+01
   1   23   12     3     4    1.9557E+06 -4.7158E+04   2.0028E+06  0.000E+00  0.000E+00  0.000E+00  1.09458E+02  2.630E+00  5.000E+00  5.000E+03 -1.886E+01
   1   23   13     3     5    2.0028E+06 -5.0801E+04   2.0536E+06  0.000E+00  0.000E+00  0.000E+00  1.08551E+02  2.669E+00  5.000E+00  5.000E+03 -2.032E+01
   1   23   14     3     6    2.0536E+06 -5.4517E+04   2.1081E+06  0.000E+00  0.000E+00  0.000E+00  1.07647E+02  2.711E+00  5.000E+00  5.000E+03 -2.181E+01
   1   23   15     3     7    2.1081E+06 -6.1861E+04   2.1700E+06  0.000E+00  0.000E+00  0.000E+00  1.06746E+02  2.756E+00  5.000E+00  5.000E+03 -2.474E+01
   1   23   16     3     8    2.1700E+06 -9.0028E+04   2.2600E+06  0.000E+00  0.000E+00  0.000E+00  1.05859E+02  2.814E+00  5.000E+00  5.000E+03 -3.601E+01





     0  LAKE CELLS ARE DRY.

 PERIOD     1     TIME STEP   186     TIME STEP LENGTH  1.1026E+01
 PERIOD TIME  1.3397E+03     TOTAL SIMULATION TIME  1.3397E+03


                 HYDROLOGIC BUDGET SUMMARIES FOR SIMULATED LAKES
     (ALL FLUID FLUXES ARE VOLUMES ADDED TO THE LAKE DURING PRESENT TIME STEP)
     -------------------------------------------------------------------------
 LAKE    STAGE         VOLUME     VOL.CHANGE      PRECIP     EVAPORATION        RUNOFF
   1   117.0291     8.5181E+07    3.2000E+01    7.9935E+05    7.0977E+05    0.0000E+00
   2   111.9660     5.3537E+07    9.2000E+01    7.9935E+05    7.0977E+05    0.0000E+00

            GROUND WATER            SURFACE WATER        WATER
 LAKE    INFLOW     OUTFLOW      INFLOW     OUTFLOW       USE
   1  3.2653E+06  0.0000E+00  1.1498E+07  1.4853E+07  0.0000E+00
   2  3.5530E+06  0.0000E+00  1.6909E+07  2.0551E+07  0.0000E+00

      CONNECTED LAKE   TIME-STEP         STAGE-CHANGE          PERCENT
 LAKE    INFLUX      SURFACE AREA   TIME STEP  CUMULATIVE    DISCREPANCY
   1   0.0000E+00     6.2500E+06   4.3512E-06 -1.2971E+01       0.000
   2   0.0000E+00     6.2500E+06   1.4550E-05 -1.8034E+01       0.000
 --------------------------------------------------------------------------------



            CUMULATIVE HYDROLOGIC BUDGET SUMMARIES FOR SIMULATED LAKES
     (ALL FLUID FLUXES ARE SUMS OF VOLUMES ADDED TO THE LAKE SINCE INITIAL TIME)
     ---------------------------------------------------------------------------
 LAKE       PRECIP       EVAP       RUNOFF
   1     9.7130E+07  8.6245E+07  0.0000E+00
   2     9.7130E+07  8.6245E+07  0.0000E+00

            GROUND WATER            SURFACE WATER
 LAKE    INFLOW     OUTFLOW      INFLOW     OUTFLOW
   1  3.2039E+08  1.5644E+06  1.3305E+09  1.7413E+09
   2  3.5672E+08  1.4259E+06  1.9462E+09  2.4251E+09

         WATER    CONNECTED LAKE   CHANGE       PERCENT
 LAKE     USE         INFLUX       IN VOL.    DISCREPANCY
   1   0.0000E+00   0.0000E+00  -8.1068E+07      0.000
   2   0.0000E+00   0.0000E+00  -1.1271E+08      0.000
 --------------------------------------------------------------------------------

 
 SOLVING FOR HEAD 
     3 ITERATIONS FOR TIME STEP 187 IN STRESS PERIOD    1

 HEAD/DRAWDOWN PRINTOUT FLAG = 0     TOTAL BUDGET PRINTOUT FLAG = 0
 CELL-BY-CELL FLOW TERM FLAG = 1

 OUTPUT FLAGS FOR ALL LAYERS ARE THE SAME:
   HEAD    DRAWDOWN  HEAD  DRAWDOWN
 PRINTOUT  PRINTOUT  SAVE    SAVE
 ----------------------------------
     0         0       0       0



 STREAM LISTING     PERIOD      1   STEP      187

 LAYER ROW COL. STREAM  RCH.  FLOW INTO     FLOW TO   FLOW OUT OF   OVRLND.     DIRECT     STREAM       STREAM     STREAM     STREAM   STREAMBED  STREAMBED
                SEG.NO.  NO.  STRM. RCH.    AQUIFER    STRM. RCH.    RUNOFF     PRECIP       ET          HEAD       DEPTH      WIDTH   CONDCTNC.   GRADIENT

   1    2    5     1     1    6.9120E+05 -8.0029E+04   7.7123E+05  0.000E+00  0.000E+00  0.000E+00  1.25330E+02  1.382E+00  5.000E+00  5.000E+03 -3.201E+01
   1    3    5     1     2    7.7123E+05 -5.6363E+04   8.2759E+05  0.000E+00  0.000E+00  0.000E+00  1.24303E+02  1.458E+00  5.000E+00  5.000E+03 -2.255E+01
   1    4    5     1     3    8.2759E+05 -5.3361E+04   8.8095E+05  0.000E+00  0.000E+00  0.000E+00  1.23258E+02  1.517E+00  5.000E+00  5.000E+03 -2.134E+01
   1    4    6     1     4    8.8095E+05 -4.3620E+04   9.2457E+05  0.000E+00  0.000E+00  0.000E+00  1.22206E+02  1.568E+00  5.000E+00  5.000E+03 -1.745E+01
   1    4    7     1     5    9.2457E+05 -2.1237E+04   9.4581E+05  0.000E+00  0.000E+00  0.000E+00  1.21412E+02  1.602E+00  5.000E+00  2.500E+03 -1.699E+01
   1    4    8     1     6    9.4581E+05 -3.4873E+04   9.8068E+05  0.000E+00  0.000E+00  0.000E+00  1.20751E+02  1.630E+00  5.000E+00  3.750E+03 -1.860E+01
   1    5    8     1     7    9.8068E+05 -3.6824E+04   1.0175E+06  0.000E+00  0.000E+00  0.000E+00  1.19822E+02  1.667E+00  5.000E+00  5.000E+03 -1.473E+01
   1    6    8     1     8    1.0175E+06 -2.5372E+04   1.0429E+06  0.000E+00  0.000E+00  0.000E+00  1.18749E+02  1.697E+00  5.000E+00  5.000E+03 -1.015E+01
   1   12    9     2     1    1.3472E+06 -2.7290E+04   1.3745E+06  0.000E+00  0.000E+00  0.000E+00  1.16632E+02  2.192E+00  5.000E+00  5.000E+03 -1.092E+01
   1   13    9     2     2    1.3745E+06 -4.2993E+04   1.4175E+06  0.000E+00  0.000E+00  0.000E+00  1.15845E+02  2.226E+00  5.000E+00  5.000E+03 -1.720E+01
   1   14   10     2     3    1.4175E+06 -2.3214E+04   1.4407E+06  0.000E+00  0.000E+00  0.000E+00  1.15237E+02  2.258E+00  5.000E+00  2.795E+03 -1.661E+01
   1   14   10     2     4    1.4407E+06 -2.4433E+04   1.4651E+06  0.000E+00  0.000E+00  0.000E+00  1.14801E+02  2.280E+00  5.000E+00  2.795E+03 -1.748E+01
   1   15   10     2     5    1.4651E+06 -4.1055E+04   1.5062E+06  0.000E+00  0.000E+00  0.000E+00  1.14192E+02  2.311E+00  5.000E+00  5.000E+03 -1.642E+01
   1   16   10     2     6    1.5062E+06 -2.7435E+04   1.5336E+06  0.000E+00  0.000E+00  0.000E+00  1.13403E+02  2.343E+00  5.000E+00  5.000E+03 -1.097E+01
   1   22   10     3     1    1.8640E+06 -2.7842E+04   1.8918E+06  0.000E+00  0.000E+00  0.000E+00  1.11505E+02  2.549E+00  5.000E+00  5.000E+03 -1.114E+01
   1   23   10     3     2    1.8918E+06 -4.0102E+04   1.9319E+06  0.000E+00  0.000E+00  0.000E+00  1.10704E+02  2.576E+00  5.000E+00  3.750E+03 -2.139E+01
   1   23   11     3     3    1.9319E+06 -2.3767E+04   1.9557E+06  0.000E+00  0.000E+00  0.000E+00  1.10139E+02  2.602E+00  5.000E+00  2.500E+03 -1.901E+01
   1   23   12     3     4    1.9557E+06 -4.7159E+04   2.0028E+06  0.000E+00  0.000E+00  0.000E+00  1.09458E+02  2.630E+00  5.000E+00  5.000E+03 -1.886E+01
   1   23   13     3     5    2.0028E+06 -5.0802E+04   2.0536E+06  0.000E+00  0.000E+00  0.000E+00  1.08551E+02  2.669E+00  5.000E+00  5.000E+03 -2.032E+01
   1   23   14     3     6    2.0536E+06 -5.4518E+04   2.1082E+06  0.000E+00  0.000E+00  0.000E+00  1.07647E+02  2.711E+00  5.000E+00  5.000E+03 -2.181E+01
   1   23   15     3     7    2.1082E+06 -6.1861E+04   2.1700E+06  0.000E+00  0.000E+00  0.000E+00  1.06746E+02  2.756E+00  5.000E+00  5.000E+03 -2.474E+01
   1   23   16     3     8    2.1700E+06 -9.0028E+04   2.2600E+06  0.000E+00  0.000E+00  0.000E+00  1.05859E+02  2.814E+00  5.000E+00  5.000E+03 -3.601E+01





     0  LAKE CELLS ARE DRY.

 PERIOD     1     TIME STEP   187     TIME STEP LENGTH  1.1081E+01
 PERIOD TIME  1.3508E+03     TOTAL SIMULATION TIME  1.3508E+03


                 HYDROLOGIC BUDGET SUMMARIES FOR SIMULATED LAKES
     (ALL FLUID FLUXES ARE VOLUMES ADDED TO THE LAKE DURING PRESENT TIME STEP)
     -------------------------------------------------------------------------
 LAKE    STAGE         VOLUME     VOL.CHANGE      PRECIP     EVAPORATION        RUNOFF
   1   117.0291     8.5181E+07    5.6000E+01    8.0335E+05    7.1332E+05    0.0000E+00
   2   111.9660     5.3537E+07    1.1200E+02    8.0335E+05    7.1332E+05    0.0000E+00

            GROUND WATER            SURFACE WATER        WATER
 LAKE    INFLOW     OUTFLOW      INFLOW     OUTFLOW       USE
   1  3.2818E+06  0.0000E+00  1.1556E+07  1.4928E+07  0.0000E+00
   2  3.5709E+06  0.0000E+00  1.6993E+07  2.0654E+07  0.0000E+00

      CONNECTED LAKE   TIME-STEP         STAGE-CHANGE          PERCENT
 LAKE    INFLUX      SURFACE AREA   TIME STEP  CUMULATIVE    DISCREPANCY
   1   0.0000E+00     6.2500E+06   8.5835E-06 -1.2971E+01       0.000
   2   0.0000E+00     6.2500E+06   1.8224E-05 -1.8034E+01       0.000
 --------------------------------------------------------------------------------



            CUMULATIVE HYDROLOGIC BUDGET SUMMARIES FOR SIMULATED LAKES
     (ALL FLUID FLUXES ARE SUMS OF VOLUMES ADDED TO THE LAKE SINCE INITIAL TIME)
     ---------------------------------------------------------------------------
 LAKE       PRECIP       EVAP       RUNOFF
   1     9.7933E+07  8.6958E+07  0.0000E+00
   2     9.7933E+07  8.6958E+07  0.0000E+00

            GROUND WATER            SURFACE WATER
 LAKE    INFLOW     OUTFLOW      INFLOW     OUTFLOW
   1  3.2368E+08  1.5644E+06  1.3421E+09  1.7562E+09
   2  3.6029E+08  1.4259E+06  1.9632E+09  2.4457E+09

         WATER    CONNECTED LAKE   CHANGE       PERCENT
 LAKE     USE         INFLUX       IN VOL.    DISCREPANCY
   1   0.0000E+00   0.0000E+00  -8.1068E+07      0.000
   2   0.0000E+00   0.0000E+00  -1.1271E+08      0.000
 --------------------------------------------------------------------------------

 
 SOLVING FOR HEAD 
     3 ITERATIONS FOR TIME STEP 188 IN STRESS PERIOD    1

 HEAD/DRAWDOWN PRINTOUT FLAG = 0     TOTAL BUDGET PRINTOUT FLAG = 0
 CELL-BY-CELL FLOW TERM FLAG = 1

 OUTPUT FLAGS FOR ALL LAYERS ARE THE SAME:
   HEAD    DRAWDOWN  HEAD  DRAWDOWN
 PRINTOUT  PRINTOUT  SAVE    SAVE
 ----------------------------------
     0         0       0       0



 STREAM LISTING     PERIOD      1   STEP      188

 LAYER ROW COL. STREAM  RCH.  FLOW INTO     FLOW TO   FLOW OUT OF   OVRLND.     DIRECT     STREAM       STREAM     STREAM     STREAM   STREAMBED  STREAMBED
                SEG.NO.  NO.  STRM. RCH.    AQUIFER    STRM. RCH.    RUNOFF     PRECIP       ET          HEAD       DEPTH      WIDTH   CONDCTNC.   GRADIENT

   1    2    5     1     1    6.9120E+05 -8.0029E+04   7.7123E+05  0.000E+00  0.000E+00  0.000E+00  1.25330E+02  1.382E+00  5.000E+00  5.000E+03 -3.201E+01
   1    3    5     1     2    7.7123E+05 -5.6363E+04   8.2759E+05  0.000E+00  0.000E+00  0.000E+00  1.24303E+02  1.458E+00  5.000E+00  5.000E+03 -2.255E+01
   1    4    5     1     3    8.2759E+05 -5.3362E+04   8.8095E+05  0.000E+00  0.000E+00  0.000E+00  1.23258E+02  1.517E+00  5.000E+00  5.000E+03 -2.134E+01
   1    4    6     1     4    8.8095E+05 -4.3620E+04   9.2457E+05  0.000E+00  0.000E+00  0.000E+00  1.22206E+02  1.568E+00  5.000E+00  5.000E+03 -1.745E+01
   1    4    7     1     5    9.2457E+05 -2.1237E+04   9.4581E+05  0.000E+00  0.000E+00  0.000E+00  1.21412E+02  1.602E+00  5.000E+00  2.500E+03 -1.699E+01
   1    4    8     1     6    9.4581E+05 -3.4873E+04   9.8068E+05  0.000E+00  0.000E+00  0.000E+00  1.20751E+02  1.630E+00  5.000E+00  3.750E+03 -1.860E+01
   1    5    8     1     7    9.8068E+05 -3.6824E+04   1.0175E+06  0.000E+00  0.000E+00  0.000E+00  1.19822E+02  1.667E+00  5.000E+00  5.000E+03 -1.473E+01
   1    6    8     1     8    1.0175E+06 -2.5372E+04   1.0429E+06  0.000E+00  0.000E+00  0.000E+00  1.18749E+02  1.697E+00  5.000E+00  5.000E+03 -1.015E+01
   1   12    9     2     1    1.3472E+06 -2.7291E+04   1.3745E+06  0.000E+00  0.000E+00  0.000E+00  1.16632E+02  2.192E+00  5.000E+00  5.000E+03 -1.092E+01
   1   13    9     2     2    1.3745E+06 -4.2994E+04   1.4175E+06  0.000E+00  0.000E+00  0.000E+00  1.15845E+02  2.226E+00  5.000E+00  5.000E+03 -1.720E+01
   1   14   10     2     3    1.4175E+06 -2.3215E+04   1.4407E+06  0.000E+00  0.000E+00  0.000E+00  1.15237E+02  2.258E+00  5.000E+00  2.795E+03 -1.661E+01
   1   14   10     2     4    1.4407E+06 -2.4434E+04   1.4651E+06  0.000E+00  0.000E+00  0.000E+00  1.14801E+02  2.280E+00  5.000E+00  2.795E+03 -1.748E+01
   1   15   10     2     5    1.4651E+06 -4.1056E+04   1.5062E+06  0.000E+00  0.000E+00  0.000E+00  1.14192E+02  2.311E+00  5.000E+00  5.000E+03 -1.642E+01
   1   16   10     2     6    1.5062E+06 -2.7436E+04   1.5336E+06  0.000E+00  0.000E+00  0.000E+00  1.13403E+02  2.343E+00  5.000E+00  5.000E+03 -1.097E+01
   1   22   10     3     1    1.8640E+06 -2.7843E+04   1.8918E+06  0.000E+00  0.000E+00  0.000E+00  1.11505E+02  2.549E+00  5.000E+00  5.000E+03 -1.114E+01
   1   23   10     3     2    1.8918E+06 -4.0102E+04   1.9319E+06  0.000E+00  0.000E+00  0.000E+00  1.10704E+02  2.576E+00  5.000E+00  3.750E+03 -2.139E+01
   1   23   11     3     3    1.9319E+06 -2.3768E+04   1.9557E+06  0.000E+00  0.000E+00  0.000E+00  1.10139E+02  2.602E+00  5.000E+00  2.500E+03 -1.901E+01
   1   23   12     3     4    1.9557E+06 -4.7159E+04   2.0029E+06  0.000E+00  0.000E+00  0.000E+00  1.09458E+02  2.631E+00  5.000E+00  5.000E+03 -1.886E+01
   1   23   13     3     5    2.0029E+06 -5.0802E+04   2.0537E+06  0.000E+00  0.000E+00  0.000E+00  1.08551E+02  2.669E+00  5.000E+00  5.000E+03 -2.032E+01
   1   23   14     3     6    2.0537E+06 -5.4518E+04   2.1082E+06  0.000E+00  0.000E+00  0.000E+00  1.07647E+02  2.711E+00  5.000E+00  5.000E+03 -2.181E+01
   1   23   15     3     7    2.1082E+06 -6.1861E+04   2.1700E+06  0.000E+00  0.000E+00  0.000E+00  1.06746E+02  2.756E+00  5.000E+00  5.000E+03 -2.474E+01
   1   23   16     3     8    2.1700E+06 -9.0028E+04   2.2601E+06  0.000E+00  0.000E+00  0.000E+00  1.05859E+02  2.814E+00  5.000E+00  5.000E+03 -3.601E+01





     0  LAKE CELLS ARE DRY.

 PERIOD     1     TIME STEP   188     TIME STEP LENGTH  1.1136E+01
 PERIOD TIME  1.3619E+03     TOTAL SIMULATION TIME  1.3619E+03


                 HYDROLOGIC BUDGET SUMMARIES FOR SIMULATED LAKES
     (ALL FLUID FLUXES ARE VOLUMES ADDED TO THE LAKE DURING PRESENT TIME STEP)
     -------------------------------------------------------------------------
 LAKE    STAGE         VOLUME     VOL.CHANGE      PRECIP     EVAPORATION        RUNOFF
   1   117.0291     8.5181E+07    3.2000E+01    8.0737E+05    7.1689E+05    0.0000E+00
   2   111.9660     5.3537E+07    7.6000E+01    8.0737E+05    7.1689E+05    0.0000E+00

            GROUND WATER            SURFACE WATER        WATER
 LAKE    INFLOW     OUTFLOW      INFLOW     OUTFLOW       USE
   1  3.2982E+06  0.0000E+00  1.1614E+07  1.5002E+07  0.0000E+00
   2  3.5888E+06  0.0000E+00  1.7078E+07  2.0757E+07  0.0000E+00

      CONNECTED LAKE   TIME-STEP         STAGE-CHANGE          PERCENT
 LAKE    INFLUX      SURFACE AREA   TIME STEP  CUMULATIVE    DISCREPANCY
   1   0.0000E+00     6.2500E+06   5.9538E-06 -1.2971E+01       0.000
   2   0.0000E+00     6.2500E+06   1.2023E-05 -1.8034E+01       0.000
 --------------------------------------------------------------------------------



            CUMULATIVE HYDROLOGIC BUDGET SUMMARIES FOR SIMULATED LAKES
     (ALL FLUID FLUXES ARE SUMS OF VOLUMES ADDED TO THE LAKE SINCE INITIAL TIME)
     ---------------------------------------------------------------------------
 LAKE       PRECIP       EVAP       RUNOFF
   1     9.8741E+07  8.7675E+07  0.0000E+00
   2     9.8741E+07  8.7675E+07  0.0000E+00

            GROUND WATER            SURFACE WATER
 LAKE    INFLOW     OUTFLOW      INFLOW     OUTFLOW
   1  3.2697E+08  1.5644E+06  1.3537E+09  1.7712E+09
   2  3.6388E+08  1.4259E+06  1.9803E+09  2.4665E+09

         WATER    CONNECTED LAKE   CHANGE       PERCENT
 LAKE     USE         INFLUX       IN VOL.    DISCREPANCY
   1   0.0000E+00   0.0000E+00  -8.1068E+07      0.000
   2   0.0000E+00   0.0000E+00  -1.1271E+08      0.000
 --------------------------------------------------------------------------------

 
 SOLVING FOR HEAD 
     3 ITERATIONS FOR TIME STEP 189 IN STRESS PERIOD    1

 HEAD/DRAWDOWN PRINTOUT FLAG = 0     TOTAL BUDGET PRINTOUT FLAG = 0
 CELL-BY-CELL FLOW TERM FLAG = 1

 OUTPUT FLAGS FOR ALL LAYERS ARE THE SAME:
   HEAD    DRAWDOWN  HEAD  DRAWDOWN
 PRINTOUT  PRINTOUT  SAVE    SAVE
 ----------------------------------
     0         0       0       0



 STREAM LISTING     PERIOD      1   STEP      189

 LAYER ROW COL. STREAM  RCH.  FLOW INTO     FLOW TO   FLOW OUT OF   OVRLND.     DIRECT     STREAM       STREAM     STREAM     STREAM   STREAMBED  STREAMBED
                SEG.NO.  NO.  STRM. RCH.    AQUIFER    STRM. RCH.    RUNOFF     PRECIP       ET          HEAD       DEPTH      WIDTH   CONDCTNC.   GRADIENT

   1    2    5     1     1    6.9120E+05 -8.0029E+04   7.7123E+05  0.000E+00  0.000E+00  0.000E+00  1.25330E+02  1.382E+00  5.000E+00  5.000E+03 -3.201E+01
   1    3    5     1     2    7.7123E+05 -5.6363E+04   8.2759E+05  0.000E+00  0.000E+00  0.000E+00  1.24303E+02  1.458E+00  5.000E+00  5.000E+03 -2.255E+01
   1    4    5     1     3    8.2759E+05 -5.3362E+04   8.8095E+05  0.000E+00  0.000E+00  0.000E+00  1.23258E+02  1.517E+00  5.000E+00  5.000E+03 -2.134E+01
   1    4    6     1     4    8.8095E+05 -4.3620E+04   9.2457E+05  0.000E+00  0.000E+00  0.000E+00  1.22206E+02  1.568E+00  5.000E+00  5.000E+03 -1.745E+01
   1    4    7     1     5    9.2457E+05 -2.1237E+04   9.4581E+05  0.000E+00  0.000E+00  0.000E+00  1.21412E+02  1.602E+00  5.000E+00  2.500E+03 -1.699E+01
   1    4    8     1     6    9.4581E+05 -3.4873E+04   9.8068E+05  0.000E+00  0.000E+00  0.000E+00  1.20751E+02  1.630E+00  5.000E+00  3.750E+03 -1.860E+01
   1    5    8     1     7    9.8068E+05 -3.6824E+04   1.0175E+06  0.000E+00  0.000E+00  0.000E+00  1.19822E+02  1.667E+00  5.000E+00  5.000E+03 -1.473E+01
   1    6    8     1     8    1.0175E+06 -2.5372E+04   1.0429E+06  0.000E+00  0.000E+00  0.000E+00  1.18749E+02  1.697E+00  5.000E+00  5.000E+03 -1.015E+01
   1   12    9     2     1    1.3472E+06 -2.7291E+04   1.3745E+06  0.000E+00  0.000E+00  0.000E+00  1.16632E+02  2.192E+00  5.000E+00  5.000E+03 -1.092E+01
   1   13    9     2     2    1.3745E+06 -4.2995E+04   1.4175E+06  0.000E+00  0.000E+00  0.000E+00  1.15845E+02  2.226E+00  5.000E+00  5.000E+03 -1.720E+01
   1   14   10     2     3    1.4175E+06 -2.3215E+04   1.4407E+06  0.000E+00  0.000E+00  0.000E+00  1.15237E+02  2.258E+00  5.000E+00  2.795E+03 -1.661E+01
   1   14   10     2     4    1.4407E+06 -2.4435E+04   1.4651E+06  0.000E+00  0.000E+00  0.000E+00  1.14801E+02  2.280E+00  5.000E+00  2.795E+03 -1.748E+01
   1   15   10     2     5    1.4651E+06 -4.1057E+04   1.5062E+06  0.000E+00  0.000E+00  0.000E+00  1.14192E+02  2.311E+00  5.000E+00  5.000E+03 -1.642E+01
   1   16   10     2     6    1.5062E+06 -2.7436E+04   1.5336E+06  0.000E+00  0.000E+00  0.000E+00  1.13403E+02  2.343E+00  5.000E+00  5.000E+03 -1.097E+01
   1   22   10     3     1    1.8640E+06 -2.7843E+04   1.8918E+06  0.000E+00  0.000E+00  0.000E+00  1.11505E+02  2.549E+00  5.000E+00  5.000E+03 -1.114E+01
   1   23   10     3     2    1.8918E+06 -4.0102E+04   1.9319E+06  0.000E+00  0.000E+00  0.000E+00  1.10705E+02  2.576E+00  5.000E+00  3.750E+03 -2.139E+01
   1   23   11     3     3    1.9319E+06 -2.3768E+04   1.9557E+06  0.000E+00  0.000E+00  0.000E+00  1.10139E+02  2.602E+00  5.000E+00  2.500E+03 -1.901E+01
   1   23   12     3     4    1.9557E+06 -4.7159E+04   2.0029E+06  0.000E+00  0.000E+00  0.000E+00  1.09458E+02  2.631E+00  5.000E+00  5.000E+03 -1.886E+01
   1   23   13     3     5    2.0029E+06 -5.0802E+04   2.0537E+06  0.000E+00  0.000E+00  0.000E+00  1.08551E+02  2.669E+00  5.000E+00  5.000E+03 -2.032E+01
   1   23   14     3     6    2.0537E+06 -5.4518E+04   2.1082E+06  0.000E+00  0.000E+00  0.000E+00  1.07647E+02  2.711E+00  5.000E+00  5.000E+03 -2.181E+01
   1   23   15     3     7    2.1082E+06 -6.1861E+04   2.1701E+06  0.000E+00  0.000E+00  0.000E+00  1.06746E+02  2.756E+00  5.000E+00  5.000E+03 -2.474E+01
   1   23   16     3     8    2.1701E+06 -9.0028E+04   2.2601E+06  0.000E+00  0.000E+00  0.000E+00  1.05859E+02  2.814E+00  5.000E+00  5.000E+03 -3.601E+01





     0  LAKE CELLS ARE DRY.

 PERIOD     1     TIME STEP   189     TIME STEP LENGTH  1.1192E+01
 PERIOD TIME  1.3731E+03     TOTAL SIMULATION TIME  1.3731E+03


                 HYDROLOGIC BUDGET SUMMARIES FOR SIMULATED LAKES
     (ALL FLUID FLUXES ARE VOLUMES ADDED TO THE LAKE DURING PRESENT TIME STEP)
     -------------------------------------------------------------------------
 LAKE    STAGE         VOLUME     VOL.CHANGE      PRECIP     EVAPORATION        RUNOFF
   1   117.0291     8.5181E+07    3.2000E+01    8.1140E+05    7.2047E+05    0.0000E+00
   2   111.9660     5.3537E+07    8.4000E+01    8.1140E+05    7.2047E+05    0.0000E+00

            GROUND WATER            SURFACE WATER        WATER
 LAKE    INFLOW     OUTFLOW      INFLOW     OUTFLOW       USE
   1  3.3148E+06  0.0000E+00  1.1672E+07  1.5077E+07  0.0000E+00
   2  3.6068E+06  0.0000E+00  1.7164E+07  2.0861E+07  0.0000E+00

      CONNECTED LAKE   TIME-STEP         STAGE-CHANGE          PERCENT
 LAKE    INFLUX      SURFACE AREA   TIME STEP  CUMULATIVE    DISCREPANCY
   1   0.0000E+00     6.2500E+06   4.6406E-06 -1.2971E+01       0.000
   2   0.0000E+00     6.2500E+06   1.3147E-05 -1.8034E+01       0.000
 --------------------------------------------------------------------------------



            CUMULATIVE HYDROLOGIC BUDGET SUMMARIES FOR SIMULATED LAKES
     (ALL FLUID FLUXES ARE SUMS OF VOLUMES ADDED TO THE LAKE SINCE INITIAL TIME)
     ---------------------------------------------------------------------------
 LAKE       PRECIP       EVAP       RUNOFF
   1     9.9552E+07  8.8396E+07  0.0000E+00
   2     9.9552E+07  8.8396E+07  0.0000E+00

            GROUND WATER            SURFACE WATER
 LAKE    INFLOW     OUTFLOW      INFLOW     OUTFLOW
   1  3.3029E+08  1.5644E+06  1.3654E+09  1.7863E+09
   2  3.6749E+08  1.4259E+06  1.9974E+09  2.4874E+09

         WATER    CONNECTED LAKE   CHANGE       PERCENT
 LAKE     USE         INFLUX       IN VOL.    DISCREPANCY
   1   0.0000E+00   0.0000E+00  -8.1067E+07      0.000
   2   0.0000E+00   0.0000E+00  -1.1271E+08      0.000
 --------------------------------------------------------------------------------

 
 SOLVING FOR HEAD 
     3 ITERATIONS FOR TIME STEP 190 IN STRESS PERIOD    1

 HEAD/DRAWDOWN PRINTOUT FLAG = 1     TOTAL BUDGET PRINTOUT FLAG = 1
 CELL-BY-CELL FLOW TERM FLAG = 1

 OUTPUT FLAGS FOR EACH LAYER:
          HEAD    DRAWDOWN  HEAD  DRAWDOWN
 LAYER  PRINTOUT  PRINTOUT  SAVE    SAVE
 -----------------------------------------
    1       0         0       0       0
    2       0         0       0       0
    3       0         0       0       0
    4       0         0       0       0
    5       1         0       0       0



 STREAM LISTING     PERIOD      1   STEP      190

 LAYER ROW COL. STREAM  RCH.  FLOW INTO     FLOW TO   FLOW OUT OF   OVRLND.     DIRECT     STREAM       STREAM     STREAM     STREAM   STREAMBED  STREAMBED
                SEG.NO.  NO.  STRM. RCH.    AQUIFER    STRM. RCH.    RUNOFF     PRECIP       ET          HEAD       DEPTH      WIDTH   CONDCTNC.   GRADIENT

   1    2    5     1     1    6.9120E+05 -8.0029E+04   7.7123E+05  0.000E+00  0.000E+00  0.000E+00  1.25330E+02  1.382E+00  5.000E+00  5.000E+03 -3.201E+01
   1    3    5     1     2    7.7123E+05 -5.6363E+04   8.2759E+05  0.000E+00  0.000E+00  0.000E+00  1.24303E+02  1.458E+00  5.000E+00  5.000E+03 -2.255E+01
   1    4    5     1     3    8.2759E+05 -5.3362E+04   8.8095E+05  0.000E+00  0.000E+00  0.000E+00  1.23258E+02  1.517E+00  5.000E+00  5.000E+03 -2.134E+01
   1    4    6     1     4    8.8095E+05 -4.3620E+04   9.2457E+05  0.000E+00  0.000E+00  0.000E+00  1.22206E+02  1.568E+00  5.000E+00  5.000E+03 -1.745E+01
   1    4    7     1     5    9.2457E+05 -2.1237E+04   9.4581E+05  0.000E+00  0.000E+00  0.000E+00  1.21412E+02  1.602E+00  5.000E+00  2.500E+03 -1.699E+01
   1    4    8     1     6    9.4581E+05 -3.4873E+04   9.8068E+05  0.000E+00  0.000E+00  0.000E+00  1.20751E+02  1.630E+00  5.000E+00  3.750E+03 -1.860E+01
   1    5    8     1     7    9.8068E+05 -3.6824E+04   1.0175E+06  0.000E+00  0.000E+00  0.000E+00  1.19822E+02  1.667E+00  5.000E+00  5.000E+03 -1.473E+01
   1    6    8     1     8    1.0175E+06 -2.5372E+04   1.0429E+06  0.000E+00  0.000E+00  0.000E+00  1.18749E+02  1.697E+00  5.000E+00  5.000E+03 -1.015E+01
   1   12    9     2     1    1.3472E+06 -2.7292E+04   1.3745E+06  0.000E+00  0.000E+00  0.000E+00  1.16632E+02  2.192E+00  5.000E+00  5.000E+03 -1.092E+01
   1   13    9     2     2    1.3745E+06 -4.2996E+04   1.4175E+06  0.000E+00  0.000E+00  0.000E+00  1.15845E+02  2.226E+00  5.000E+00  5.000E+03 -1.720E+01
   1   14   10     2     3    1.4175E+06 -2.3216E+04   1.4407E+06  0.000E+00  0.000E+00  0.000E+00  1.15237E+02  2.258E+00  5.000E+00  2.795E+03 -1.661E+01
   1   14   10     2     4    1.4407E+06 -2.4435E+04   1.4651E+06  0.000E+00  0.000E+00  0.000E+00  1.14801E+02  2.280E+00  5.000E+00  2.795E+03 -1.748E+01
   1   15   10     2     5    1.4651E+06 -4.1058E+04   1.5062E+06  0.000E+00  0.000E+00  0.000E+00  1.14192E+02  2.311E+00  5.000E+00  5.000E+03 -1.642E+01
   1   16   10     2     6    1.5062E+06 -2.7437E+04   1.5336E+06  0.000E+00  0.000E+00  0.000E+00  1.13403E+02  2.343E+00  5.000E+00  5.000E+03 -1.097E+01
   1   22   10     3     1    1.8640E+06 -2.7843E+04   1.8919E+06  0.000E+00  0.000E+00  0.000E+00  1.11505E+02  2.549E+00  5.000E+00  5.000E+03 -1.114E+01
   1   23   10     3     2    1.8919E+06 -4.0102E+04   1.9320E+06  0.000E+00  0.000E+00  0.000E+00  1.10705E+02  2.576E+00  5.000E+00  3.750E+03 -2.139E+01
   1   23   11     3     3    1.9320E+06 -2.3768E+04   1.9557E+06  0.000E+00  0.000E+00  0.000E+00  1.10139E+02  2.602E+00  5.000E+00  2.500E+03 -1.901E+01
   1   23   12     3     4    1.9557E+06 -4.7160E+04   2.0029E+06  0.000E+00  0.000E+00  0.000E+00  1.09458E+02  2.631E+00  5.000E+00  5.000E+03 -1.886E+01
   1   23   13     3     5    2.0029E+06 -5.0803E+04   2.0537E+06  0.000E+00  0.000E+00  0.000E+00  1.08551E+02  2.669E+00  5.000E+00  5.000E+03 -2.032E+01
   1   23   14     3     6    2.0537E+06 -5.4518E+04   2.1082E+06  0.000E+00  0.000E+00  0.000E+00  1.07647E+02  2.711E+00  5.000E+00  5.000E+03 -2.181E+01
   1   23   15     3     7    2.1082E+06 -6.1862E+04   2.1701E+06  0.000E+00  0.000E+00  0.000E+00  1.06746E+02  2.756E+00  5.000E+00  5.000E+03 -2.474E+01
   1   23   16     3     8    2.1701E+06 -9.0028E+04   2.2601E+06  0.000E+00  0.000E+00  0.000E+00  1.05859E+02  2.814E+00  5.000E+00  5.000E+03 -3.601E+01





     0  LAKE CELLS ARE DRY.

 PERIOD     1     TIME STEP   190     TIME STEP LENGTH  1.1248E+01
 PERIOD TIME  1.3844E+03     TOTAL SIMULATION TIME  1.3844E+03


                 HYDROLOGIC BUDGET SUMMARIES FOR SIMULATED LAKES
     (ALL FLUID FLUXES ARE VOLUMES ADDED TO THE LAKE DURING PRESENT TIME STEP)
     -------------------------------------------------------------------------
 LAKE    STAGE         VOLUME     VOL.CHANGE      PRECIP     EVAPORATION        RUNOFF
   1   117.0291     8.5181E+07    3.2000E+01    8.1546E+05    7.2407E+05    0.0000E+00
   2   111.9660     5.3537E+07    6.4000E+01    8.1546E+05    7.2407E+05    0.0000E+00

            GROUND WATER            SURFACE WATER        WATER
 LAKE    INFLOW     OUTFLOW      INFLOW     OUTFLOW       USE
   1  3.3314E+06  0.0000E+00  1.1730E+07  1.5153E+07  0.0000E+00
   2  3.6248E+06  0.0000E+00  1.7250E+07  2.0966E+07  0.0000E+00

      CONNECTED LAKE   TIME-STEP         STAGE-CHANGE          PERCENT
 LAKE    INFLUX      SURFACE AREA   TIME STEP  CUMULATIVE    DISCREPANCY
   1   0.0000E+00     6.2500E+06   5.2824E-06 -1.2971E+01       0.000
   2   0.0000E+00     6.2500E+06   1.0232E-05 -1.8034E+01       0.000
 --------------------------------------------------------------------------------



            CUMULATIVE HYDROLOGIC BUDGET SUMMARIES FOR SIMULATED LAKES
     (ALL FLUID FLUXES ARE SUMS OF VOLUMES ADDED TO THE LAKE SINCE INITIAL TIME)
     ---------------------------------------------------------------------------
 LAKE       PRECIP       EVAP       RUNOFF
   1     1.0037E+08  8.9120E+07  0.0000E+00
   2     1.0037E+08  8.9120E+07  0.0000E+00

            GROUND WATER            SURFACE WATER
 LAKE    INFLOW     OUTFLOW      INFLOW     OUTFLOW
   1  3.3362E+08  1.5644E+06  1.3771E+09  1.8015E+09
   2  3.7111E+08  1.4259E+06  2.0147E+09  2.5083E+09

         WATER    CONNECTED LAKE   CHANGE       PERCENT
 LAKE     USE         INFLUX       IN VOL.    DISCREPANCY
   1   0.0000E+00   0.0000E+00  -8.1067E+07      0.000
   2   0.0000E+00   0.0000E+00  -1.1271E+08      0.000
 --------------------------------------------------------------------------------

1
              HEAD IN LAYER   5 AT END OF TIME STEP 190 IN STRESS PERIOD    1
  ---------------------------------------------------------------------------

          1      2      3      4      5      6      7      8      9     10
 .........................................................................
   1   160.0  158.9  157.3  155.8  154.2  152.7  151.5  150.8  150.0  149.2
   2   160.0  158.2  155.3  151.1  141.4  146.7  147.2  147.2  147.0  146.6
   3   160.0  157.6  153.6  147.6  135.6  139.9  140.8  141.3  142.1  142.8
   4   160.0  157.3  153.0  146.7  134.0  130.9  129.9  130.1  135.4  138.2
   5   160.0  157.3  153.3  148.3  141.8  136.2  131.3  127.2  131.5  134.5
   6   160.0  157.4  153.6  149.3  143.7  136.2  128.4  123.8  126.1  128.1
   7   160.0  157.5  153.7  149.5  143.7  133.6  117.9  117.3  117.3  117.4
   8   160.0  157.5  153.8  149.6  143.7  132.8  117.5  117.1  117.0  117.1
   9   160.0  157.5  153.9  149.8  143.8  132.8  117.5  117.0  117.0  117.0
  10   160.0  157.6  154.0  150.0  144.2  133.3  117.6  117.1  117.0  117.1
  11   160.0  157.6  154.1  150.2  144.7  134.7  118.0  117.4  117.2  117.3
  12   160.0  157.6  154.3  150.6  145.9  138.7  130.8  126.5  122.1  125.0
  13   160.0  157.7  154.4  151.1  147.0  141.5  135.8  131.0  124.5  127.8
  14   160.0  157.7  154.5  151.2  147.3  142.4  137.6  133.6  128.9  123.6
  15   160.0  157.7  154.4  151.0  146.9  141.4  136.2  132.3  127.8  122.4
  16   160.0  157.6  154.2  150.5  145.5  137.8  129.5  125.5  122.3  118.9
  17   160.0  157.6  154.1  150.1  144.2  132.7  113.1  112.4  112.3  112.2
  18   160.0  157.6  154.1  150.0  143.7  131.1  112.6  112.0  112.0  112.0
  19   160.0  157.6  154.1  149.9  143.6  130.7  112.6  112.0  112.0  112.0
  20   160.0  157.6  154.2  150.1  143.8  131.3  112.6  112.0  112.0  112.0
  21   160.0  157.7  154.3  150.4  144.6  133.1  113.2  112.4  112.3  112.2
  22   160.0  157.7  154.5  151.0  146.2  138.7  130.3  126.1  122.1  117.1
  23   160.0  157.9  154.9  151.9  148.3  143.6  138.9  135.1  129.8  121.4
  24   160.0  158.0  155.4  152.8  150.0  146.8  143.9  141.8  139.5  137.3
  25   160.0  158.2  155.9  153.7  151.5  149.1  147.2  145.9  144.6  143.3
  26   160.0  158.5  156.6  154.8  153.0  151.2  149.8  148.8  147.9  147.0
  27   160.0  158.9  157.3  155.8  154.2  152.7  151.5  150.8  150.0  149.2
1
              HEAD IN LAYER   5 AT END OF TIME STEP 190 IN STRESS PERIOD    1
  ---------------------------------------------------------------------------

         11     12     13     14     15     16     17
 ....................................................
   1   148.5  147.3  145.8  144.2  142.7  141.1  140.0
   2   146.3  145.6  144.4  143.1  141.8  140.5  140.0
   3   143.1  143.3  142.8  141.9  141.0  140.2  140.0
   4   139.8  141.1  141.4  141.1  140.5  139.9  140.0
   5   136.5  138.7  140.0  140.3  140.0  139.8  140.0
   6   130.4  135.2  138.4  139.5  139.7  139.7  140.0
   7   117.9  131.3  137.2  139.0  139.5  139.6  140.0
   8   117.5  130.0  136.6  138.8  139.4  139.6  140.0
   9   117.4  129.5  136.3  138.7  139.3  139.6  140.0
  10   117.4  129.6  136.4  138.6  139.3  139.5  140.0
  11   117.8  130.5  136.6  138.7  139.3  139.5  140.0
  12   127.9  133.4  137.3  138.9  139.3  139.5  140.0
  13   131.0  135.1  137.9  139.0  139.4  139.5  140.0
  14   129.3  134.7  137.8  138.9  139.3  139.5  140.0
  15   127.7  133.5  137.1  138.6  139.1  139.5  140.0
  16   123.5  130.8  135.9  137.9  138.8  139.3  140.0
  17   112.8  127.1  134.5  137.2  138.3  139.1  140.0
  18   112.4  125.7  133.7  136.6  137.9  138.9  140.0
  19   112.4  124.8  132.9  135.9  137.3  138.6  140.0
  20   112.4  124.3  132.0  134.8  136.3  138.1  140.0
  21   112.6  124.0  130.8  133.4  134.9  137.2  140.0
  22   119.7  124.1  128.0  129.9  131.5  134.9  140.0
  23   119.7  118.9  118.7  118.6  119.1  123.9  140.0
  24   135.7  134.1  132.9  132.2  132.5  135.2  140.0
  25   142.2  140.8  139.3  138.3  137.8  138.5  140.0
  26   146.1  144.9  143.4  142.0  140.9  140.1  140.0
  27   148.5  147.3  145.8  144.2  142.7  141.1  140.0
1
  VOLUMETRIC BUDGET FOR ENTIRE MODEL AT END OF TIME STEP190 IN STRESS PERIOD   1
  ------------------------------------------------------------------------------

     CUMULATIVE VOLUMES      L**3       RATES FOR THIS TIME STEP      L**3/T
     ------------------                 ------------------------

           IN:                                      IN:
           ---                                      ---
             STORAGE =     2934570.5000               STORAGE =       7.1390E-02
       CONSTANT HEAD =  1244966784.0000         CONSTANT HEAD =      540352.1875
                  ET =           0.0000                    ET =           0.0000
            RECHARGE =  3813972480.0000              RECHARGE =     2755000.0000
     SPECIFIED FLOWS =           0.0000       SPECIFIED FLOWS =           0.0000
      STREAM LEAKAGE =     3694574.2500        STREAM LEAKAGE =           0.0000
       LAKE  SEEPAGE =     2990331.7500         LAKE  SEEPAGE =           0.0000

            TOTAL IN =  5068558848.0000              TOTAL IN =     3295352.2500

          OUT:                                     OUT:
          ----                                     ----
             STORAGE =  1271857920.0000               STORAGE =         593.4072
       CONSTANT HEAD =     2640472.5000         CONSTANT HEAD =        2776.1506
                  ET =  1948043264.0000                    ET =     1739310.2500
            RECHARGE =           0.0000              RECHARGE =           0.0000
     SPECIFIED FLOWS =           0.0000       SPECIFIED FLOWS =           0.0000
      STREAM LEAKAGE =  1141274752.0000        STREAM LEAKAGE =      934198.4375
       LAKE  SEEPAGE =   704734208.0000         LAKE  SEEPAGE =      618454.8750

           TOTAL OUT =  5068550656.0000             TOTAL OUT =     3295333.0000

            IN - OUT =        8192.0000              IN - OUT =          19.2500

 PERCENT DISCREPANCY =           0.00     PERCENT DISCREPANCY =           0.00






          TIME SUMMARY AT END OF TIME STEP 190 IN STRESS PERIOD    1
                    SECONDS     MINUTES      HOURS       DAYS        YEARS
                    -----------------------------------------------------------
   TIME STEP LENGTH 9.71805E+05  16197.      269.95      11.248     3.07946E-02
 STRESS PERIOD TIME 1.19611E+08 1.99351E+06  33225.      1384.4      3.7902    
         TOTAL TIME 1.19611E+08 1.99351E+06  33225.      1384.4      3.7902    
1
 
 SOLVING FOR HEAD 
     3 ITERATIONS FOR TIME STEP 191 IN STRESS PERIOD    1

 HEAD/DRAWDOWN PRINTOUT FLAG = 0     TOTAL BUDGET PRINTOUT FLAG = 0
 CELL-BY-CELL FLOW TERM FLAG = 1

 OUTPUT FLAGS FOR ALL LAYERS ARE THE SAME:
   HEAD    DRAWDOWN  HEAD  DRAWDOWN
 PRINTOUT  PRINTOUT  SAVE    SAVE
 ----------------------------------
     0         0       0       0



 STREAM LISTING     PERIOD      1   STEP      191

 LAYER ROW COL. STREAM  RCH.  FLOW INTO     FLOW TO   FLOW OUT OF   OVRLND.     DIRECT     STREAM       STREAM     STREAM     STREAM   STREAMBED  STREAMBED
                SEG.NO.  NO.  STRM. RCH.    AQUIFER    STRM. RCH.    RUNOFF     PRECIP       ET          HEAD       DEPTH      WIDTH   CONDCTNC.   GRADIENT

   1    2    5     1     1    6.9120E+05 -8.0029E+04   7.7123E+05  0.000E+00  0.000E+00  0.000E+00  1.25330E+02  1.382E+00  5.000E+00  5.000E+03 -3.201E+01
   1    3    5     1     2    7.7123E+05 -5.6363E+04   8.2759E+05  0.000E+00  0.000E+00  0.000E+00  1.24303E+02  1.458E+00  5.000E+00  5.000E+03 -2.255E+01
   1    4    5     1     3    8.2759E+05 -5.3362E+04   8.8095E+05  0.000E+00  0.000E+00  0.000E+00  1.23258E+02  1.517E+00  5.000E+00  5.000E+03 -2.134E+01
   1    4    6     1     4    8.8095E+05 -4.3620E+04   9.2458E+05  0.000E+00  0.000E+00  0.000E+00  1.22206E+02  1.568E+00  5.000E+00  5.000E+03 -1.745E+01
   1    4    7     1     5    9.2458E+05 -2.1237E+04   9.4581E+05  0.000E+00  0.000E+00  0.000E+00  1.21412E+02  1.602E+00  5.000E+00  2.500E+03 -1.699E+01
   1    4    8     1     6    9.4581E+05 -3.4873E+04   9.8069E+05  0.000E+00  0.000E+00  0.000E+00  1.20751E+02  1.630E+00  5.000E+00  3.750E+03 -1.860E+01
   1    5    8     1     7    9.8069E+05 -3.6825E+04   1.0175E+06  0.000E+00  0.000E+00  0.000E+00  1.19822E+02  1.667E+00  5.000E+00  5.000E+03 -1.473E+01
   1    6    8     1     8    1.0175E+06 -2.5372E+04   1.0429E+06  0.000E+00  0.000E+00  0.000E+00  1.18749E+02  1.697E+00  5.000E+00  5.000E+03 -1.015E+01
   1   12    9     2     1    1.3472E+06 -2.7292E+04   1.3745E+06  0.000E+00  0.000E+00  0.000E+00  1.16632E+02  2.192E+00  5.000E+00  5.000E+03 -1.092E+01
   1   13    9     2     2    1.3745E+06 -4.2997E+04   1.4175E+06  0.000E+00  0.000E+00  0.000E+00  1.15845E+02  2.226E+00  5.000E+00  5.000E+03 -1.720E+01
   1   14   10     2     3    1.4175E+06 -2.3216E+04   1.4407E+06  0.000E+00  0.000E+00  0.000E+00  1.15237E+02  2.258E+00  5.000E+00  2.795E+03 -1.661E+01
   1   14   10     2     4    1.4407E+06 -2.4436E+04   1.4651E+06  0.000E+00  0.000E+00  0.000E+00  1.14801E+02  2.280E+00  5.000E+00  2.795E+03 -1.749E+01
   1   15   10     2     5    1.4651E+06 -4.1059E+04   1.5062E+06  0.000E+00  0.000E+00  0.000E+00  1.14192E+02  2.311E+00  5.000E+00  5.000E+03 -1.642E+01
   1   16   10     2     6    1.5062E+06 -2.7438E+04   1.5336E+06  0.000E+00  0.000E+00  0.000E+00  1.13403E+02  2.343E+00  5.000E+00  5.000E+03 -1.098E+01
   1   22   10     3     1    1.8640E+06 -2.7843E+04   1.8919E+06  0.000E+00  0.000E+00  0.000E+00  1.11505E+02  2.549E+00  5.000E+00  5.000E+03 -1.114E+01
   1   23   10     3     2    1.8919E+06 -4.0103E+04   1.9320E+06  0.000E+00  0.000E+00  0.000E+00  1.10705E+02  2.576E+00  5.000E+00  3.750E+03 -2.139E+01
   1   23   11     3     3    1.9320E+06 -2.3768E+04   1.9557E+06  0.000E+00  0.000E+00  0.000E+00  1.10139E+02  2.602E+00  5.000E+00  2.500E+03 -1.901E+01
   1   23   12     3     4    1.9557E+06 -4.7160E+04   2.0029E+06  0.000E+00  0.000E+00  0.000E+00  1.09458E+02  2.631E+00  5.000E+00  5.000E+03 -1.886E+01
   1   23   13     3     5    2.0029E+06 -5.0803E+04   2.0537E+06  0.000E+00  0.000E+00  0.000E+00  1.08551E+02  2.669E+00  5.000E+00  5.000E+03 -2.032E+01
   1   23   14     3     6    2.0537E+06 -5.4519E+04   2.1082E+06  0.000E+00  0.000E+00  0.000E+00  1.07647E+02  2.711E+00  5.000E+00  5.000E+03 -2.181E+01
   1   23   15     3     7    2.1082E+06 -6.1862E+04   2.1701E+06  0.000E+00  0.000E+00  0.000E+00  1.06746E+02  2.756E+00  5.000E+00  5.000E+03 -2.474E+01
   1   23   16     3     8    2.1701E+06 -9.0028E+04   2.2601E+06  0.000E+00  0.000E+00  0.000E+00  1.05859E+02  2.814E+00  5.000E+00  5.000E+03 -3.601E+01





     0  LAKE CELLS ARE DRY.

 PERIOD     1     TIME STEP   191     TIME STEP LENGTH  1.1304E+01
 PERIOD TIME  1.3957E+03     TOTAL SIMULATION TIME  1.3957E+03


                 HYDROLOGIC BUDGET SUMMARIES FOR SIMULATED LAKES
     (ALL FLUID FLUXES ARE VOLUMES ADDED TO THE LAKE DURING PRESENT TIME STEP)
     -------------------------------------------------------------------------
 LAKE    STAGE         VOLUME     VOL.CHANGE      PRECIP     EVAPORATION        RUNOFF
   1   117.0291     8.5181E+07    3.2000E+01    8.1954E+05    7.2769E+05    0.0000E+00
   2   111.9661     5.3537E+07    6.8000E+01    8.1954E+05    7.2769E+05    0.0000E+00

            GROUND WATER            SURFACE WATER        WATER
 LAKE    INFLOW     OUTFLOW      INFLOW     OUTFLOW       USE
   1  3.3481E+06  0.0000E+00  1.1789E+07  1.5229E+07  0.0000E+00
   2  3.6430E+06  0.0000E+00  1.7336E+07  2.1071E+07  0.0000E+00

      CONNECTED LAKE   TIME-STEP         STAGE-CHANGE          PERCENT
 LAKE    INFLUX      SURFACE AREA   TIME STEP  CUMULATIVE    DISCREPANCY
   1   0.0000E+00     6.2500E+06   4.8002E-06 -1.2971E+01       0.000
   2   0.0000E+00     6.2500E+06   1.0792E-05 -1.8034E+01       0.000
 --------------------------------------------------------------------------------



            CUMULATIVE HYDROLOGIC BUDGET SUMMARIES FOR SIMULATED LAKES
     (ALL FLUID FLUXES ARE SUMS OF VOLUMES ADDED TO THE LAKE SINCE INITIAL TIME)
     ---------------------------------------------------------------------------
 LAKE       PRECIP       EVAP       RUNOFF
   1     1.0119E+08  8.9847E+07  0.0000E+00
   2     1.0119E+08  8.9847E+07  0.0000E+00

            GROUND WATER            SURFACE WATER
 LAKE    INFLOW     OUTFLOW      INFLOW     OUTFLOW
   1  3.3697E+08  1.5644E+06  1.3889E+09  1.8167E+09
   2  3.7476E+08  1.4259E+06  2.0320E+09  2.5294E+09

         WATER    CONNECTED LAKE   CHANGE       PERCENT
 LAKE     USE         INFLUX       IN VOL.    DISCREPANCY
   1   0.0000E+00   0.0000E+00  -8.1067E+07      0.000
   2   0.0000E+00   0.0000E+00  -1.1271E+08      0.000
 --------------------------------------------------------------------------------

 
 SOLVING FOR HEAD 
     3 ITERATIONS FOR TIME STEP 192 IN STRESS PERIOD    1

 HEAD/DRAWDOWN PRINTOUT FLAG = 0     TOTAL BUDGET PRINTOUT FLAG = 0
 CELL-BY-CELL FLOW TERM FLAG = 1

 OUTPUT FLAGS FOR ALL LAYERS ARE THE SAME:
   HEAD    DRAWDOWN  HEAD  DRAWDOWN
 PRINTOUT  PRINTOUT  SAVE    SAVE
 ----------------------------------
     0         0       0       0



 STREAM LISTING     PERIOD      1   STEP      192

 LAYER ROW COL. STREAM  RCH.  FLOW INTO     FLOW TO   FLOW OUT OF   OVRLND.     DIRECT     STREAM       STREAM     STREAM     STREAM   STREAMBED  STREAMBED
                SEG.NO.  NO.  STRM. RCH.    AQUIFER    STRM. RCH.    RUNOFF     PRECIP       ET          HEAD       DEPTH      WIDTH   CONDCTNC.   GRADIENT

   1    2    5     1     1    6.9120E+05 -8.0029E+04   7.7123E+05  0.000E+00  0.000E+00  0.000E+00  1.25330E+02  1.382E+00  5.000E+00  5.000E+03 -3.201E+01
   1    3    5     1     2    7.7123E+05 -5.6363E+04   8.2759E+05  0.000E+00  0.000E+00  0.000E+00  1.24303E+02  1.458E+00  5.000E+00  5.000E+03 -2.255E+01
   1    4    5     1     3    8.2759E+05 -5.3363E+04   8.8096E+05  0.000E+00  0.000E+00  0.000E+00  1.23258E+02  1.517E+00  5.000E+00  5.000E+03 -2.135E+01
   1    4    6     1     4    8.8096E+05 -4.3621E+04   9.2458E+05  0.000E+00  0.000E+00  0.000E+00  1.22206E+02  1.568E+00  5.000E+00  5.000E+03 -1.745E+01
   1    4    7     1     5    9.2458E+05 -2.1237E+04   9.4581E+05  0.000E+00  0.000E+00  0.000E+00  1.21412E+02  1.602E+00  5.000E+00  2.500E+03 -1.699E+01
   1    4    8     1     6    9.4581E+05 -3.4873E+04   9.8069E+05  0.000E+00  0.000E+00  0.000E+00  1.20751E+02  1.630E+00  5.000E+00  3.750E+03 -1.860E+01
   1    5    8     1     7    9.8069E+05 -3.6825E+04   1.0175E+06  0.000E+00  0.000E+00  0.000E+00  1.19822E+02  1.667E+00  5.000E+00  5.000E+03 -1.473E+01
   1    6    8     1     8    1.0175E+06 -2.5373E+04   1.0429E+06  0.000E+00  0.000E+00  0.000E+00  1.18749E+02  1.697E+00  5.000E+00  5.000E+03 -1.015E+01
   1   12    9     2     1    1.3472E+06 -2.7293E+04   1.3745E+06  0.000E+00  0.000E+00  0.000E+00  1.16632E+02  2.192E+00  5.000E+00  5.000E+03 -1.092E+01
   1   13    9     2     2    1.3745E+06 -4.2998E+04   1.4175E+06  0.000E+00  0.000E+00  0.000E+00  1.15845E+02  2.226E+00  5.000E+00  5.000E+03 -1.720E+01
   1   14   10     2     3    1.4175E+06 -2.3217E+04   1.4407E+06  0.000E+00  0.000E+00  0.000E+00  1.15237E+02  2.258E+00  5.000E+00  2.795E+03 -1.661E+01
   1   14   10     2     4    1.4407E+06 -2.4436E+04   1.4651E+06  0.000E+00  0.000E+00  0.000E+00  1.14801E+02  2.280E+00  5.000E+00  2.795E+03 -1.749E+01
   1   15   10     2     5    1.4651E+06 -4.1060E+04   1.5062E+06  0.000E+00  0.000E+00  0.000E+00  1.14192E+02  2.311E+00  5.000E+00  5.000E+03 -1.642E+01
   1   16   10     2     6    1.5062E+06 -2.7438E+04   1.5336E+06  0.000E+00  0.000E+00  0.000E+00  1.13403E+02  2.343E+00  5.000E+00  5.000E+03 -1.098E+01
   1   22   10     3     1    1.8640E+06 -2.7844E+04   1.8919E+06  0.000E+00  0.000E+00  0.000E+00  1.11505E+02  2.549E+00  5.000E+00  5.000E+03 -1.114E+01
   1   23   10     3     2    1.8919E+06 -4.0103E+04   1.9320E+06  0.000E+00  0.000E+00  0.000E+00  1.10705E+02  2.576E+00  5.000E+00  3.750E+03 -2.139E+01
   1   23   11     3     3    1.9320E+06 -2.3768E+04   1.9558E+06  0.000E+00  0.000E+00  0.000E+00  1.10139E+02  2.602E+00  5.000E+00  2.500E+03 -1.901E+01
   1   23   12     3     4    1.9558E+06 -4.7160E+04   2.0029E+06  0.000E+00  0.000E+00  0.000E+00  1.09458E+02  2.631E+00  5.000E+00  5.000E+03 -1.886E+01
   1   23   13     3     5    2.0029E+06 -5.0803E+04   2.0537E+06  0.000E+00  0.000E+00  0.000E+00  1.08551E+02  2.669E+00  5.000E+00  5.000E+03 -2.032E+01
   1   23   14     3     6    2.0537E+06 -5.4519E+04   2.1082E+06  0.000E+00  0.000E+00  0.000E+00  1.07647E+02  2.711E+00  5.000E+00  5.000E+03 -2.181E+01
   1   23   15     3     7    2.1082E+06 -6.1862E+04   2.1701E+06  0.000E+00  0.000E+00  0.000E+00  1.06746E+02  2.756E+00  5.000E+00  5.000E+03 -2.474E+01
   1   23   16     3     8    2.1701E+06 -9.0028E+04   2.2601E+06  0.000E+00  0.000E+00  0.000E+00  1.05859E+02  2.814E+00  5.000E+00  5.000E+03 -3.601E+01





     0  LAKE CELLS ARE DRY.

 PERIOD     1     TIME STEP   192     TIME STEP LENGTH  1.1361E+01
 PERIOD TIME  1.4070E+03     TOTAL SIMULATION TIME  1.4070E+03


                 HYDROLOGIC BUDGET SUMMARIES FOR SIMULATED LAKES
     (ALL FLUID FLUXES ARE VOLUMES ADDED TO THE LAKE DURING PRESENT TIME STEP)
     -------------------------------------------------------------------------
 LAKE    STAGE         VOLUME     VOL.CHANGE      PRECIP     EVAPORATION        RUNOFF
   1   117.0291     8.5181E+07    3.2000E+01    8.2364E+05    7.3133E+05    0.0000E+00
   2   111.9661     5.3537E+07    6.4000E+01    8.2364E+05    7.3133E+05    0.0000E+00

            GROUND WATER            SURFACE WATER        WATER
 LAKE    INFLOW     OUTFLOW      INFLOW     OUTFLOW       USE
   1  3.3649E+06  0.0000E+00  1.1848E+07  1.5305E+07  0.0000E+00
   2  3.6613E+06  0.0000E+00  1.7423E+07  2.1176E+07  0.0000E+00

      CONNECTED LAKE   TIME-STEP         STAGE-CHANGE          PERCENT
 LAKE    INFLUX      SURFACE AREA   TIME STEP  CUMULATIVE    DISCREPANCY
   1   0.0000E+00     6.2500E+06   5.7330E-06 -1.2971E+01       0.000
   2   0.0000E+00     6.2500E+06   1.0278E-05 -1.8034E+01       0.000
 --------------------------------------------------------------------------------



            CUMULATIVE HYDROLOGIC BUDGET SUMMARIES FOR SIMULATED LAKES
     (ALL FLUID FLUXES ARE SUMS OF VOLUMES ADDED TO THE LAKE SINCE INITIAL TIME)
     ---------------------------------------------------------------------------
 LAKE       PRECIP       EVAP       RUNOFF
   1     1.0201E+08  9.0579E+07  0.0000E+00
   2     1.0201E+08  9.0579E+07  0.0000E+00

            GROUND WATER            SURFACE WATER
 LAKE    INFLOW     OUTFLOW      INFLOW     OUTFLOW
   1  3.4033E+08  1.5644E+06  1.4007E+09  1.8320E+09
   2  3.7842E+08  1.4259E+06  2.0494E+09  2.5506E+09

         WATER    CONNECTED LAKE   CHANGE       PERCENT
 LAKE     USE         INFLUX       IN VOL.    DISCREPANCY
   1   0.0000E+00   0.0000E+00  -8.1067E+07      0.000
   2   0.0000E+00   0.0000E+00  -1.1271E+08      0.000
 --------------------------------------------------------------------------------

 
 SOLVING FOR HEAD 
     3 ITERATIONS FOR TIME STEP 193 IN STRESS PERIOD    1

 HEAD/DRAWDOWN PRINTOUT FLAG = 0     TOTAL BUDGET PRINTOUT FLAG = 0
 CELL-BY-CELL FLOW TERM FLAG = 1

 OUTPUT FLAGS FOR ALL LAYERS ARE THE SAME:
   HEAD    DRAWDOWN  HEAD  DRAWDOWN
 PRINTOUT  PRINTOUT  SAVE    SAVE
 ----------------------------------
     0         0       0       0



 STREAM LISTING     PERIOD      1   STEP      193

 LAYER ROW COL. STREAM  RCH.  FLOW INTO     FLOW TO   FLOW OUT OF   OVRLND.     DIRECT     STREAM       STREAM     STREAM     STREAM   STREAMBED  STREAMBED
                SEG.NO.  NO.  STRM. RCH.    AQUIFER    STRM. RCH.    RUNOFF     PRECIP       ET          HEAD       DEPTH      WIDTH   CONDCTNC.   GRADIENT

   1    2    5     1     1    6.9120E+05 -8.0029E+04   7.7123E+05  0.000E+00  0.000E+00  0.000E+00  1.25330E+02  1.382E+00  5.000E+00  5.000E+03 -3.201E+01
   1    3    5     1     2    7.7123E+05 -5.6363E+04   8.2759E+05  0.000E+00  0.000E+00  0.000E+00  1.24303E+02  1.458E+00  5.000E+00  5.000E+03 -2.255E+01
   1    4    5     1     3    8.2759E+05 -5.3363E+04   8.8096E+05  0.000E+00  0.000E+00  0.000E+00  1.23258E+02  1.517E+00  5.000E+00  5.000E+03 -2.135E+01
   1    4    6     1     4    8.8096E+05 -4.3621E+04   9.2458E+05  0.000E+00  0.000E+00  0.000E+00  1.22206E+02  1.568E+00  5.000E+00  5.000E+03 -1.745E+01
   1    4    7     1     5    9.2458E+05 -2.1237E+04   9.4581E+05  0.000E+00  0.000E+00  0.000E+00  1.21412E+02  1.602E+00  5.000E+00  2.500E+03 -1.699E+01
   1    4    8     1     6    9.4581E+05 -3.4874E+04   9.8069E+05  0.000E+00  0.000E+00  0.000E+00  1.20751E+02  1.630E+00  5.000E+00  3.750E+03 -1.860E+01
   1    5    8     1     7    9.8069E+05 -3.6825E+04   1.0175E+06  0.000E+00  0.000E+00  0.000E+00  1.19822E+02  1.667E+00  5.000E+00  5.000E+03 -1.473E+01
   1    6    8     1     8    1.0175E+06 -2.5373E+04   1.0429E+06  0.000E+00  0.000E+00  0.000E+00  1.18749E+02  1.697E+00  5.000E+00  5.000E+03 -1.015E+01
   1   12    9     2     1    1.3472E+06 -2.7293E+04   1.3745E+06  0.000E+00  0.000E+00  0.000E+00  1.16632E+02  2.192E+00  5.000E+00  5.000E+03 -1.092E+01
   1   13    9     2     2    1.3745E+06 -4.2999E+04   1.4175E+06  0.000E+00  0.000E+00  0.000E+00  1.15845E+02  2.226E+00  5.000E+00  5.000E+03 -1.720E+01
   1   14   10     2     3    1.4175E+06 -2.3217E+04   1.4407E+06  0.000E+00  0.000E+00  0.000E+00  1.15237E+02  2.258E+00  5.000E+00  2.795E+03 -1.661E+01
   1   14   10     2     4    1.4407E+06 -2.4437E+04   1.4651E+06  0.000E+00  0.000E+00  0.000E+00  1.14801E+02  2.280E+00  5.000E+00  2.795E+03 -1.749E+01
   1   15   10     2     5    1.4651E+06 -4.1060E+04   1.5062E+06  0.000E+00  0.000E+00  0.000E+00  1.14192E+02  2.311E+00  5.000E+00  5.000E+03 -1.642E+01
   1   16   10     2     6    1.5062E+06 -2.7439E+04   1.5336E+06  0.000E+00  0.000E+00  0.000E+00  1.13403E+02  2.343E+00  5.000E+00  5.000E+03 -1.098E+01
   1   22   10     3     1    1.8641E+06 -2.7844E+04   1.8919E+06  0.000E+00  0.000E+00  0.000E+00  1.11505E+02  2.549E+00  5.000E+00  5.000E+03 -1.114E+01
   1   23   10     3     2    1.8919E+06 -4.0103E+04   1.9320E+06  0.000E+00  0.000E+00  0.000E+00  1.10705E+02  2.576E+00  5.000E+00  3.750E+03 -2.139E+01
   1   23   11     3     3    1.9320E+06 -2.3768E+04   1.9558E+06  0.000E+00  0.000E+00  0.000E+00  1.10139E+02  2.602E+00  5.000E+00  2.500E+03 -1.901E+01
   1   23   12     3     4    1.9558E+06 -4.7160E+04   2.0029E+06  0.000E+00  0.000E+00  0.000E+00  1.09458E+02  2.631E+00  5.000E+00  5.000E+03 -1.886E+01
   1   23   13     3     5    2.0029E+06 -5.0803E+04   2.0537E+06  0.000E+00  0.000E+00  0.000E+00  1.08551E+02  2.669E+00  5.000E+00  5.000E+03 -2.032E+01
   1   23   14     3     6    2.0537E+06 -5.4519E+04   2.1082E+06  0.000E+00  0.000E+00  0.000E+00  1.07647E+02  2.711E+00  5.000E+00  5.000E+03 -2.181E+01
   1   23   15     3     7    2.1082E+06 -6.1862E+04   2.1701E+06  0.000E+00  0.000E+00  0.000E+00  1.06746E+02  2.756E+00  5.000E+00  5.000E+03 -2.474E+01
   1   23   16     3     8    2.1701E+06 -9.0028E+04   2.2601E+06  0.000E+00  0.000E+00  0.000E+00  1.05859E+02  2.814E+00  5.000E+00  5.000E+03 -3.601E+01





     0  LAKE CELLS ARE DRY.

 PERIOD     1     TIME STEP   193     TIME STEP LENGTH  1.1417E+01
 PERIOD TIME  1.4185E+03     TOTAL SIMULATION TIME  1.4185E+03


                 HYDROLOGIC BUDGET SUMMARIES FOR SIMULATED LAKES
     (ALL FLUID FLUXES ARE VOLUMES ADDED TO THE LAKE DURING PRESENT TIME STEP)
     -------------------------------------------------------------------------
 LAKE    STAGE         VOLUME     VOL.CHANGE      PRECIP     EVAPORATION        RUNOFF
   1   117.0291     8.5181E+07    3.2000E+01    8.2775E+05    7.3499E+05    0.0000E+00
   2   111.9661     5.3537E+07    7.6000E+01    8.2775E+05    7.3499E+05    0.0000E+00

            GROUND WATER            SURFACE WATER        WATER
 LAKE    INFLOW     OUTFLOW      INFLOW     OUTFLOW       USE
   1  3.3817E+06  0.0000E+00  1.1907E+07  1.5381E+07  0.0000E+00
   2  3.6797E+06  0.0000E+00  1.7510E+07  2.1282E+07  0.0000E+00

      CONNECTED LAKE   TIME-STEP         STAGE-CHANGE          PERCENT
 LAKE    INFLUX      SURFACE AREA   TIME STEP  CUMULATIVE    DISCREPANCY
   1   0.0000E+00     6.2500E+06   4.4487E-06 -1.2971E+01       0.000
   2   0.0000E+00     6.2500E+06   1.2441E-05 -1.8034E+01       0.000
 --------------------------------------------------------------------------------



            CUMULATIVE HYDROLOGIC BUDGET SUMMARIES FOR SIMULATED LAKES
     (ALL FLUID FLUXES ARE SUMS OF VOLUMES ADDED TO THE LAKE SINCE INITIAL TIME)
     ---------------------------------------------------------------------------
 LAKE       PRECIP       EVAP       RUNOFF
   1     1.0284E+08  9.1314E+07  0.0000E+00
   2     1.0284E+08  9.1314E+07  0.0000E+00

            GROUND WATER            SURFACE WATER
 LAKE    INFLOW     OUTFLOW      INFLOW     OUTFLOW
   1  3.4371E+08  1.5644E+06  1.4126E+09  1.8474E+09
   2  3.8210E+08  1.4259E+06  2.0669E+09  2.5718E+09

         WATER    CONNECTED LAKE   CHANGE       PERCENT
 LAKE     USE         INFLUX       IN VOL.    DISCREPANCY
   1   0.0000E+00   0.0000E+00  -8.1067E+07      0.000
   2   0.0000E+00   0.0000E+00  -1.1271E+08      0.000
 --------------------------------------------------------------------------------

 
 SOLVING FOR HEAD 
     3 ITERATIONS FOR TIME STEP 194 IN STRESS PERIOD    1

 HEAD/DRAWDOWN PRINTOUT FLAG = 0     TOTAL BUDGET PRINTOUT FLAG = 0
 CELL-BY-CELL FLOW TERM FLAG = 1

 OUTPUT FLAGS FOR ALL LAYERS ARE THE SAME:
   HEAD    DRAWDOWN  HEAD  DRAWDOWN
 PRINTOUT  PRINTOUT  SAVE    SAVE
 ----------------------------------
     0         0       0       0



 STREAM LISTING     PERIOD      1   STEP      194

 LAYER ROW COL. STREAM  RCH.  FLOW INTO     FLOW TO   FLOW OUT OF   OVRLND.     DIRECT     STREAM       STREAM     STREAM     STREAM   STREAMBED  STREAMBED
                SEG.NO.  NO.  STRM. RCH.    AQUIFER    STRM. RCH.    RUNOFF     PRECIP       ET          HEAD       DEPTH      WIDTH   CONDCTNC.   GRADIENT

   1    2    5     1     1    6.9120E+05 -8.0029E+04   7.7123E+05  0.000E+00  0.000E+00  0.000E+00  1.25330E+02  1.382E+00  5.000E+00  5.000E+03 -3.201E+01
   1    3    5     1     2    7.7123E+05 -5.6363E+04   8.2759E+05  0.000E+00  0.000E+00  0.000E+00  1.24303E+02  1.458E+00  5.000E+00  5.000E+03 -2.255E+01
   1    4    5     1     3    8.2759E+05 -5.3363E+04   8.8096E+05  0.000E+00  0.000E+00  0.000E+00  1.23258E+02  1.517E+00  5.000E+00  5.000E+03 -2.135E+01
   1    4    6     1     4    8.8096E+05 -4.3621E+04   9.2458E+05  0.000E+00  0.000E+00  0.000E+00  1.22206E+02  1.568E+00  5.000E+00  5.000E+03 -1.745E+01
   1    4    7     1     5    9.2458E+05 -2.1238E+04   9.4581E+05  0.000E+00  0.000E+00  0.000E+00  1.21412E+02  1.602E+00  5.000E+00  2.500E+03 -1.699E+01
   1    4    8     1     6    9.4581E+05 -3.4874E+04   9.8069E+05  0.000E+00  0.000E+00  0.000E+00  1.20751E+02  1.630E+00  5.000E+00  3.750E+03 -1.860E+01
   1    5    8     1     7    9.8069E+05 -3.6825E+04   1.0175E+06  0.000E+00  0.000E+00  0.000E+00  1.19822E+02  1.667E+00  5.000E+00  5.000E+03 -1.473E+01
   1    6    8     1     8    1.0175E+06 -2.5373E+04   1.0429E+06  0.000E+00  0.000E+00  0.000E+00  1.18749E+02  1.697E+00  5.000E+00  5.000E+03 -1.015E+01
   1   12    9     2     1    1.3472E+06 -2.7293E+04   1.3745E+06  0.000E+00  0.000E+00  0.000E+00  1.16632E+02  2.192E+00  5.000E+00  5.000E+03 -1.092E+01
   1   13    9     2     2    1.3745E+06 -4.2999E+04   1.4175E+06  0.000E+00  0.000E+00  0.000E+00  1.15845E+02  2.226E+00  5.000E+00  5.000E+03 -1.720E+01
   1   14   10     2     3    1.4175E+06 -2.3218E+04   1.4407E+06  0.000E+00  0.000E+00  0.000E+00  1.15237E+02  2.258E+00  5.000E+00  2.795E+03 -1.661E+01
   1   14   10     2     4    1.4407E+06 -2.4437E+04   1.4651E+06  0.000E+00  0.000E+00  0.000E+00  1.14801E+02  2.280E+00  5.000E+00  2.795E+03 -1.749E+01
   1   15   10     2     5    1.4651E+06 -4.1061E+04   1.5062E+06  0.000E+00  0.000E+00  0.000E+00  1.14192E+02  2.311E+00  5.000E+00  5.000E+03 -1.642E+01
   1   16   10     2     6    1.5062E+06 -2.7439E+04   1.5336E+06  0.000E+00  0.000E+00  0.000E+00  1.13403E+02  2.343E+00  5.000E+00  5.000E+03 -1.098E+01
   1   22   10     3     1    1.8641E+06 -2.7844E+04   1.8919E+06  0.000E+00  0.000E+00  0.000E+00  1.11505E+02  2.549E+00  5.000E+00  5.000E+03 -1.114E+01
   1   23   10     3     2    1.8919E+06 -4.0103E+04   1.9320E+06  0.000E+00  0.000E+00  0.000E+00  1.10705E+02  2.576E+00  5.000E+00  3.750E+03 -2.139E+01
   1   23   11     3     3    1.9320E+06 -2.3768E+04   1.9558E+06  0.000E+00  0.000E+00  0.000E+00  1.10139E+02  2.602E+00  5.000E+00  2.500E+03 -1.901E+01
   1   23   12     3     4    1.9558E+06 -4.7161E+04   2.0029E+06  0.000E+00  0.000E+00  0.000E+00  1.09458E+02  2.631E+00  5.000E+00  5.000E+03 -1.886E+01
   1   23   13     3     5    2.0029E+06 -5.0804E+04   2.0537E+06  0.000E+00  0.000E+00  0.000E+00  1.08551E+02  2.669E+00  5.000E+00  5.000E+03 -2.032E+01
   1   23   14     3     6    2.0537E+06 -5.4519E+04   2.1083E+06  0.000E+00  0.000E+00  0.000E+00  1.07647E+02  2.711E+00  5.000E+00  5.000E+03 -2.181E+01
   1   23   15     3     7    2.1083E+06 -6.1862E+04   2.1701E+06  0.000E+00  0.000E+00  0.000E+00  1.06746E+02  2.756E+00  5.000E+00  5.000E+03 -2.474E+01
   1   23   16     3     8    2.1701E+06 -9.0028E+04   2.2601E+06  0.000E+00  0.000E+00  0.000E+00  1.05859E+02  2.814E+00  5.000E+00  5.000E+03 -3.601E+01





     0  LAKE CELLS ARE DRY.

 PERIOD     1     TIME STEP   194     TIME STEP LENGTH  1.1474E+01
 PERIOD TIME  1.4299E+03     TOTAL SIMULATION TIME  1.4299E+03


                 HYDROLOGIC BUDGET SUMMARIES FOR SIMULATED LAKES
     (ALL FLUID FLUXES ARE VOLUMES ADDED TO THE LAKE DURING PRESENT TIME STEP)
     -------------------------------------------------------------------------
 LAKE    STAGE         VOLUME     VOL.CHANGE      PRECIP     EVAPORATION        RUNOFF
   1   117.0291     8.5181E+07    0.0000E+00    8.3189E+05    7.3866E+05    0.0000E+00
   2   111.9661     5.3537E+07    1.2000E+01    8.3189E+05    7.3866E+05    0.0000E+00

            GROUND WATER            SURFACE WATER        WATER
 LAKE    INFLOW     OUTFLOW      INFLOW     OUTFLOW       USE
   1  3.3986E+06  0.0000E+00  1.1966E+07  1.5458E+07  0.0000E+00
   2  3.6980E+06  0.0000E+00  1.7598E+07  2.1389E+07  0.0000E+00

      CONNECTED LAKE   TIME-STEP         STAGE-CHANGE          PERCENT
 LAKE    INFLUX      SURFACE AREA   TIME STEP  CUMULATIVE    DISCREPANCY
   1   0.0000E+00     6.2500E+06   5.1237E-07 -1.2971E+01       0.000
   2   0.0000E+00     6.2500E+06   2.1188E-06 -1.8034E+01       0.000
 --------------------------------------------------------------------------------



            CUMULATIVE HYDROLOGIC BUDGET SUMMARIES FOR SIMULATED LAKES
     (ALL FLUID FLUXES ARE SUMS OF VOLUMES ADDED TO THE LAKE SINCE INITIAL TIME)
     ---------------------------------------------------------------------------
 LAKE       PRECIP       EVAP       RUNOFF
   1     1.0367E+08  9.2052E+07  0.0000E+00
   2     1.0367E+08  9.2052E+07  0.0000E+00

            GROUND WATER            SURFACE WATER
 LAKE    INFLOW     OUTFLOW      INFLOW     OUTFLOW
   1  3.4711E+08  1.5644E+06  1.4246E+09  1.8628E+09
   2  3.8580E+08  1.4259E+06  2.0845E+09  2.5932E+09

         WATER    CONNECTED LAKE   CHANGE       PERCENT
 LAKE     USE         INFLUX       IN VOL.    DISCREPANCY
   1   0.0000E+00   0.0000E+00  -8.1067E+07      0.000
   2   0.0000E+00   0.0000E+00  -1.1271E+08      0.000
 --------------------------------------------------------------------------------

 
 SOLVING FOR HEAD 
     3 ITERATIONS FOR TIME STEP 195 IN STRESS PERIOD    1

 HEAD/DRAWDOWN PRINTOUT FLAG = 0     TOTAL BUDGET PRINTOUT FLAG = 0
 CELL-BY-CELL FLOW TERM FLAG = 1

 OUTPUT FLAGS FOR ALL LAYERS ARE THE SAME:
   HEAD    DRAWDOWN  HEAD  DRAWDOWN
 PRINTOUT  PRINTOUT  SAVE    SAVE
 ----------------------------------
     0         0       0       0



 STREAM LISTING     PERIOD      1   STEP      195

 LAYER ROW COL. STREAM  RCH.  FLOW INTO     FLOW TO   FLOW OUT OF   OVRLND.     DIRECT     STREAM       STREAM     STREAM     STREAM   STREAMBED  STREAMBED
                SEG.NO.  NO.  STRM. RCH.    AQUIFER    STRM. RCH.    RUNOFF     PRECIP       ET          HEAD       DEPTH      WIDTH   CONDCTNC.   GRADIENT

   1    2    5     1     1    6.9120E+05 -8.0029E+04   7.7123E+05  0.000E+00  0.000E+00  0.000E+00  1.25330E+02  1.382E+00  5.000E+00  5.000E+03 -3.201E+01
   1    3    5     1     2    7.7123E+05 -5.6363E+04   8.2759E+05  0.000E+00  0.000E+00  0.000E+00  1.24303E+02  1.458E+00  5.000E+00  5.000E+03 -2.255E+01
   1    4    5     1     3    8.2759E+05 -5.3363E+04   8.8096E+05  0.000E+00  0.000E+00  0.000E+00  1.23258E+02  1.517E+00  5.000E+00  5.000E+03 -2.135E+01
   1    4    6     1     4    8.8096E+05 -4.3621E+04   9.2458E+05  0.000E+00  0.000E+00  0.000E+00  1.22206E+02  1.568E+00  5.000E+00  5.000E+03 -1.745E+01
   1    4    7     1     5    9.2458E+05 -2.1238E+04   9.4581E+05  0.000E+00  0.000E+00  0.000E+00  1.21412E+02  1.602E+00  5.000E+00  2.500E+03 -1.699E+01
   1    4    8     1     6    9.4581E+05 -3.4874E+04   9.8069E+05  0.000E+00  0.000E+00  0.000E+00  1.20751E+02  1.630E+00  5.000E+00  3.750E+03 -1.860E+01
   1    5    8     1     7    9.8069E+05 -3.6825E+04   1.0175E+06  0.000E+00  0.000E+00  0.000E+00  1.19822E+02  1.667E+00  5.000E+00  5.000E+03 -1.473E+01
   1    6    8     1     8    1.0175E+06 -2.5373E+04   1.0429E+06  0.000E+00  0.000E+00  0.000E+00  1.18749E+02  1.697E+00  5.000E+00  5.000E+03 -1.015E+01
   1   12    9     2     1    1.3472E+06 -2.7294E+04   1.3745E+06  0.000E+00  0.000E+00  0.000E+00  1.16632E+02  2.192E+00  5.000E+00  5.000E+03 -1.092E+01
   1   13    9     2     2    1.3745E+06 -4.3000E+04   1.4175E+06  0.000E+00  0.000E+00  0.000E+00  1.15845E+02  2.226E+00  5.000E+00  5.000E+03 -1.720E+01
   1   14   10     2     3    1.4175E+06 -2.3218E+04   1.4407E+06  0.000E+00  0.000E+00  0.000E+00  1.15237E+02  2.258E+00  5.000E+00  2.795E+03 -1.661E+01
   1   14   10     2     4    1.4407E+06 -2.4437E+04   1.4652E+06  0.000E+00  0.000E+00  0.000E+00  1.14801E+02  2.280E+00  5.000E+00  2.795E+03 -1.749E+01
   1   15   10     2     5    1.4652E+06 -4.1062E+04   1.5062E+06  0.000E+00  0.000E+00  0.000E+00  1.14192E+02  2.311E+00  5.000E+00  5.000E+03 -1.642E+01
   1   16   10     2     6    1.5062E+06 -2.7439E+04   1.5337E+06  0.000E+00  0.000E+00  0.000E+00  1.13403E+02  2.343E+00  5.000E+00  5.000E+03 -1.098E+01
   1   22   10     3     1    1.8641E+06 -2.7844E+04   1.8919E+06  0.000E+00  0.000E+00  0.000E+00  1.11505E+02  2.549E+00  5.000E+00  5.000E+03 -1.114E+01
   1   23   10     3     2    1.8919E+06 -4.0103E+04   1.9320E+06  0.000E+00  0.000E+00  0.000E+00  1.10705E+02  2.576E+00  5.000E+00  3.750E+03 -2.139E+01
   1   23   11     3     3    1.9320E+06 -2.3769E+04   1.9558E+06  0.000E+00  0.000E+00  0.000E+00  1.10139E+02  2.602E+00  5.000E+00  2.500E+03 -1.901E+01
   1   23   12     3     4    1.9558E+06 -4.7161E+04   2.0029E+06  0.000E+00  0.000E+00  0.000E+00  1.09458E+02  2.631E+00  5.000E+00  5.000E+03 -1.886E+01
   1   23   13     3     5    2.0029E+06 -5.0804E+04   2.0537E+06  0.000E+00  0.000E+00  0.000E+00  1.08551E+02  2.669E+00  5.000E+00  5.000E+03 -2.032E+01
   1   23   14     3     6    2.0537E+06 -5.4519E+04   2.1083E+06  0.000E+00  0.000E+00  0.000E+00  1.07647E+02  2.711E+00  5.000E+00  5.000E+03 -2.181E+01
   1   23   15     3     7    2.1083E+06 -6.1862E+04   2.1701E+06  0.000E+00  0.000E+00  0.000E+00  1.06746E+02  2.756E+00  5.000E+00  5.000E+03 -2.474E+01
   1   23   16     3     8    2.1701E+06 -9.0028E+04   2.2602E+06  0.000E+00  0.000E+00  0.000E+00  1.05859E+02  2.814E+00  5.000E+00  5.000E+03 -3.601E+01





     0  LAKE CELLS ARE DRY.

 PERIOD     1     TIME STEP   195     TIME STEP LENGTH  1.1532E+01
 PERIOD TIME  1.4415E+03     TOTAL SIMULATION TIME  1.4415E+03


                 HYDROLOGIC BUDGET SUMMARIES FOR SIMULATED LAKES
     (ALL FLUID FLUXES ARE VOLUMES ADDED TO THE LAKE DURING PRESENT TIME STEP)
     -------------------------------------------------------------------------
 LAKE    STAGE         VOLUME     VOL.CHANGE      PRECIP     EVAPORATION        RUNOFF
   1   117.0291     8.5181E+07    2.4000E+01    8.3605E+05    7.4236E+05    0.0000E+00
   2   111.9661     5.3537E+07    5.6000E+01    8.3605E+05    7.4236E+05    0.0000E+00

            GROUND WATER            SURFACE WATER        WATER
 LAKE    INFLOW     OUTFLOW      INFLOW     OUTFLOW       USE
   1  3.4157E+06  0.0000E+00  1.2026E+07  1.5536E+07  0.0000E+00
   2  3.7166E+06  0.0000E+00  1.7686E+07  2.1496E+07  0.0000E+00

      CONNECTED LAKE   TIME-STEP         STAGE-CHANGE          PERCENT
 LAKE    INFLUX      SURFACE AREA   TIME STEP  CUMULATIVE    DISCREPANCY
   1   0.0000E+00     6.2500E+06   4.4356E-06 -1.2971E+01       0.000
   2   0.0000E+00     6.2500E+06   8.7604E-06 -1.8034E+01       0.000
 --------------------------------------------------------------------------------



            CUMULATIVE HYDROLOGIC BUDGET SUMMARIES FOR SIMULATED LAKES
     (ALL FLUID FLUXES ARE SUMS OF VOLUMES ADDED TO THE LAKE SINCE INITIAL TIME)
     ---------------------------------------------------------------------------
 LAKE       PRECIP       EVAP       RUNOFF
   1     1.0451E+08  9.2795E+07  0.0000E+00
   2     1.0451E+08  9.2795E+07  0.0000E+00

            GROUND WATER            SURFACE WATER
 LAKE    INFLOW     OUTFLOW      INFLOW     OUTFLOW
   1  3.5053E+08  1.5644E+06  1.4366E+09  1.8784E+09
   2  3.8951E+08  1.4259E+06  2.1022E+09  2.6147E+09

         WATER    CONNECTED LAKE   CHANGE       PERCENT
 LAKE     USE         INFLUX       IN VOL.    DISCREPANCY
   1   0.0000E+00   0.0000E+00  -8.1067E+07      0.000
   2   0.0000E+00   0.0000E+00  -1.1271E+08      0.000
 --------------------------------------------------------------------------------

 
 SOLVING FOR HEAD 
     2 ITERATIONS FOR TIME STEP 196 IN STRESS PERIOD    1

 HEAD/DRAWDOWN PRINTOUT FLAG = 0     TOTAL BUDGET PRINTOUT FLAG = 0
 CELL-BY-CELL FLOW TERM FLAG = 1

 OUTPUT FLAGS FOR ALL LAYERS ARE THE SAME:
   HEAD    DRAWDOWN  HEAD  DRAWDOWN
 PRINTOUT  PRINTOUT  SAVE    SAVE
 ----------------------------------
     0         0       0       0



 STREAM LISTING     PERIOD      1   STEP      196

 LAYER ROW COL. STREAM  RCH.  FLOW INTO     FLOW TO   FLOW OUT OF   OVRLND.     DIRECT     STREAM       STREAM     STREAM     STREAM   STREAMBED  STREAMBED
                SEG.NO.  NO.  STRM. RCH.    AQUIFER    STRM. RCH.    RUNOFF     PRECIP       ET          HEAD       DEPTH      WIDTH   CONDCTNC.   GRADIENT

   1    2    5     1     1    6.9120E+05 -8.0029E+04   7.7123E+05  0.000E+00  0.000E+00  0.000E+00  1.25330E+02  1.382E+00  5.000E+00  5.000E+03 -3.201E+01
   1    3    5     1     2    7.7123E+05 -5.6363E+04   8.2759E+05  0.000E+00  0.000E+00  0.000E+00  1.24303E+02  1.458E+00  5.000E+00  5.000E+03 -2.255E+01
   1    4    5     1     3    8.2759E+05 -5.3363E+04   8.8096E+05  0.000E+00  0.000E+00  0.000E+00  1.23258E+02  1.517E+00  5.000E+00  5.000E+03 -2.135E+01
   1    4    6     1     4    8.8096E+05 -4.3621E+04   9.2458E+05  0.000E+00  0.000E+00  0.000E+00  1.22206E+02  1.568E+00  5.000E+00  5.000E+03 -1.745E+01
   1    4    7     1     5    9.2458E+05 -2.1238E+04   9.4581E+05  0.000E+00  0.000E+00  0.000E+00  1.21412E+02  1.602E+00  5.000E+00  2.500E+03 -1.699E+01
   1    4    8     1     6    9.4581E+05 -3.4874E+04   9.8069E+05  0.000E+00  0.000E+00  0.000E+00  1.20751E+02  1.630E+00  5.000E+00  3.750E+03 -1.860E+01
   1    5    8     1     7    9.8069E+05 -3.6825E+04   1.0175E+06  0.000E+00  0.000E+00  0.000E+00  1.19822E+02  1.667E+00  5.000E+00  5.000E+03 -1.473E+01
   1    6    8     1     8    1.0175E+06 -2.5373E+04   1.0429E+06  0.000E+00  0.000E+00  0.000E+00  1.18749E+02  1.697E+00  5.000E+00  5.000E+03 -1.015E+01
   1   12    9     2     1    1.3472E+06 -2.7294E+04   1.3745E+06  0.000E+00  0.000E+00  0.000E+00  1.16632E+02  2.192E+00  5.000E+00  5.000E+03 -1.092E+01
   1   13    9     2     2    1.3745E+06 -4.3001E+04   1.4175E+06  0.000E+00  0.000E+00  0.000E+00  1.15845E+02  2.226E+00  5.000E+00  5.000E+03 -1.720E+01
   1   14   10     2     3    1.4175E+06 -2.3218E+04   1.4407E+06  0.000E+00  0.000E+00  0.000E+00  1.15237E+02  2.258E+00  5.000E+00  2.795E+03 -1.661E+01
   1   14   10     2     4    1.4407E+06 -2.4438E+04   1.4652E+06  0.000E+00  0.000E+00  0.000E+00  1.14801E+02  2.280E+00  5.000E+00  2.795E+03 -1.749E+01
   1   15   10     2     5    1.4652E+06 -4.1062E+04   1.5062E+06  0.000E+00  0.000E+00  0.000E+00  1.14192E+02  2.311E+00  5.000E+00  5.000E+03 -1.642E+01
   1   16   10     2     6    1.5062E+06 -2.7440E+04   1.5337E+06  0.000E+00  0.000E+00  0.000E+00  1.13403E+02  2.343E+00  5.000E+00  5.000E+03 -1.098E+01
   1   22   10     3     1    1.8641E+06 -2.7844E+04   1.8919E+06  0.000E+00  0.000E+00  0.000E+00  1.11505E+02  2.549E+00  5.000E+00  5.000E+03 -1.114E+01
   1   23   10     3     2    1.8919E+06 -4.0104E+04   1.9320E+06  0.000E+00  0.000E+00  0.000E+00  1.10705E+02  2.576E+00  5.000E+00  3.750E+03 -2.139E+01
   1   23   11     3     3    1.9320E+06 -2.3769E+04   1.9558E+06  0.000E+00  0.000E+00  0.000E+00  1.10139E+02  2.602E+00  5.000E+00  2.500E+03 -1.901E+01
   1   23   12     3     4    1.9558E+06 -4.7161E+04   2.0030E+06  0.000E+00  0.000E+00  0.000E+00  1.09458E+02  2.631E+00  5.000E+00  5.000E+03 -1.886E+01
   1   23   13     3     5    2.0030E+06 -5.0804E+04   2.0538E+06  0.000E+00  0.000E+00  0.000E+00  1.08551E+02  2.669E+00  5.000E+00  5.000E+03 -2.032E+01
   1   23   14     3     6    2.0538E+06 -5.4519E+04   2.1083E+06  0.000E+00  0.000E+00  0.000E+00  1.07647E+02  2.711E+00  5.000E+00  5.000E+03 -2.181E+01
   1   23   15     3     7    2.1083E+06 -6.1862E+04   2.1701E+06  0.000E+00  0.000E+00  0.000E+00  1.06746E+02  2.756E+00  5.000E+00  5.000E+03 -2.474E+01
   1   23   16     3     8    2.1701E+06 -9.0028E+04   2.2602E+06  0.000E+00  0.000E+00  0.000E+00  1.05859E+02  2.814E+00  5.000E+00  5.000E+03 -3.601E+01





     0  LAKE CELLS ARE DRY.

 PERIOD     1     TIME STEP   196     TIME STEP LENGTH  1.1589E+01
 PERIOD TIME  1.4531E+03     TOTAL SIMULATION TIME  1.4531E+03


                 HYDROLOGIC BUDGET SUMMARIES FOR SIMULATED LAKES
     (ALL FLUID FLUXES ARE VOLUMES ADDED TO THE LAKE DURING PRESENT TIME STEP)
     -------------------------------------------------------------------------
 LAKE    STAGE         VOLUME     VOL.CHANGE      PRECIP     EVAPORATION        RUNOFF
   1   117.0291     8.5181E+07    4.0000E+01    8.4023E+05    7.4607E+05    0.0000E+00
   2   111.9661     5.3537E+07    7.6000E+01    8.4023E+05    7.4607E+05    0.0000E+00

            GROUND WATER            SURFACE WATER        WATER
 LAKE    INFLOW     OUTFLOW      INFLOW     OUTFLOW       USE
   1  3.4328E+06  0.0000E+00  1.2086E+07  1.5613E+07  0.0000E+00
   2  3.7352E+06  0.0000E+00  1.7774E+07  2.1604E+07  0.0000E+00

      CONNECTED LAKE   TIME-STEP         STAGE-CHANGE          PERCENT
 LAKE    INFLUX      SURFACE AREA   TIME STEP  CUMULATIVE    DISCREPANCY
   1   0.0000E+00     6.2500E+06   6.3700E-06 -1.2971E+01       0.000
   2   0.0000E+00     6.2500E+06   1.2339E-05 -1.8034E+01       0.000
 --------------------------------------------------------------------------------



            CUMULATIVE HYDROLOGIC BUDGET SUMMARIES FOR SIMULATED LAKES
     (ALL FLUID FLUXES ARE SUMS OF VOLUMES ADDED TO THE LAKE SINCE INITIAL TIME)
     ---------------------------------------------------------------------------
 LAKE       PRECIP       EVAP       RUNOFF
   1     1.0535E+08  9.3541E+07  0.0000E+00
   2     1.0535E+08  9.3541E+07  0.0000E+00

            GROUND WATER            SURFACE WATER
 LAKE    INFLOW     OUTFLOW      INFLOW     OUTFLOW
   1  3.5396E+08  1.5644E+06  1.4487E+09  1.8940E+09
   2  3.9325E+08  1.4259E+06  2.1200E+09  2.6363E+09

         WATER    CONNECTED LAKE   CHANGE       PERCENT
 LAKE     USE         INFLUX       IN VOL.    DISCREPANCY
   1   0.0000E+00   0.0000E+00  -8.1067E+07      0.000
   2   0.0000E+00   0.0000E+00  -1.1271E+08      0.000
 --------------------------------------------------------------------------------

 
 SOLVING FOR HEAD 
     2 ITERATIONS FOR TIME STEP 197 IN STRESS PERIOD    1

 HEAD/DRAWDOWN PRINTOUT FLAG = 0     TOTAL BUDGET PRINTOUT FLAG = 0
 CELL-BY-CELL FLOW TERM FLAG = 1

 OUTPUT FLAGS FOR ALL LAYERS ARE THE SAME:
   HEAD    DRAWDOWN  HEAD  DRAWDOWN
 PRINTOUT  PRINTOUT  SAVE    SAVE
 ----------------------------------
     0         0       0       0



 STREAM LISTING     PERIOD      1   STEP      197

 LAYER ROW COL. STREAM  RCH.  FLOW INTO     FLOW TO   FLOW OUT OF   OVRLND.     DIRECT     STREAM       STREAM     STREAM     STREAM   STREAMBED  STREAMBED
                SEG.NO.  NO.  STRM. RCH.    AQUIFER    STRM. RCH.    RUNOFF     PRECIP       ET          HEAD       DEPTH      WIDTH   CONDCTNC.   GRADIENT

   1    2    5     1     1    6.9120E+05 -8.0029E+04   7.7123E+05  0.000E+00  0.000E+00  0.000E+00  1.25330E+02  1.382E+00  5.000E+00  5.000E+03 -3.201E+01
   1    3    5     1     2    7.7123E+05 -5.6363E+04   8.2759E+05  0.000E+00  0.000E+00  0.000E+00  1.24303E+02  1.458E+00  5.000E+00  5.000E+03 -2.255E+01
   1    4    5     1     3    8.2759E+05 -5.3363E+04   8.8096E+05  0.000E+00  0.000E+00  0.000E+00  1.23258E+02  1.517E+00  5.000E+00  5.000E+03 -2.135E+01
   1    4    6     1     4    8.8096E+05 -4.3621E+04   9.2458E+05  0.000E+00  0.000E+00  0.000E+00  1.22206E+02  1.568E+00  5.000E+00  5.000E+03 -1.745E+01
   1    4    7     1     5    9.2458E+05 -2.1238E+04   9.4582E+05  0.000E+00  0.000E+00  0.000E+00  1.21412E+02  1.602E+00  5.000E+00  2.500E+03 -1.699E+01
   1    4    8     1     6    9.4582E+05 -3.4874E+04   9.8069E+05  0.000E+00  0.000E+00  0.000E+00  1.20751E+02  1.630E+00  5.000E+00  3.750E+03 -1.860E+01
   1    5    8     1     7    9.8069E+05 -3.6826E+04   1.0175E+06  0.000E+00  0.000E+00  0.000E+00  1.19822E+02  1.667E+00  5.000E+00  5.000E+03 -1.473E+01
   1    6    8     1     8    1.0175E+06 -2.5373E+04   1.0429E+06  0.000E+00  0.000E+00  0.000E+00  1.18749E+02  1.697E+00  5.000E+00  5.000E+03 -1.015E+01
   1   12    9     2     1    1.3472E+06 -2.7294E+04   1.3745E+06  0.000E+00  0.000E+00  0.000E+00  1.16632E+02  2.192E+00  5.000E+00  5.000E+03 -1.092E+01
   1   13    9     2     2    1.3745E+06 -4.3001E+04   1.4175E+06  0.000E+00  0.000E+00  0.000E+00  1.15845E+02  2.226E+00  5.000E+00  5.000E+03 -1.720E+01
   1   14   10     2     3    1.4175E+06 -2.3219E+04   1.4407E+06  0.000E+00  0.000E+00  0.000E+00  1.15237E+02  2.258E+00  5.000E+00  2.795E+03 -1.661E+01
   1   14   10     2     4    1.4407E+06 -2.4438E+04   1.4652E+06  0.000E+00  0.000E+00  0.000E+00  1.14801E+02  2.280E+00  5.000E+00  2.795E+03 -1.749E+01
   1   15   10     2     5    1.4652E+06 -4.1063E+04   1.5062E+06  0.000E+00  0.000E+00  0.000E+00  1.14192E+02  2.311E+00  5.000E+00  5.000E+03 -1.643E+01
   1   16   10     2     6    1.5062E+06 -2.7440E+04   1.5337E+06  0.000E+00  0.000E+00  0.000E+00  1.13403E+02  2.343E+00  5.000E+00  5.000E+03 -1.098E+01
   1   22   10     3     1    1.8641E+06 -2.7844E+04   1.8919E+06  0.000E+00  0.000E+00  0.000E+00  1.11505E+02  2.549E+00  5.000E+00  5.000E+03 -1.114E+01
   1   23   10     3     2    1.8919E+06 -4.0104E+04   1.9320E+06  0.000E+00  0.000E+00  0.000E+00  1.10705E+02  2.576E+00  5.000E+00  3.750E+03 -2.139E+01
   1   23   11     3     3    1.9320E+06 -2.3769E+04   1.9558E+06  0.000E+00  0.000E+00  0.000E+00  1.10139E+02  2.602E+00  5.000E+00  2.500E+03 -1.901E+01
   1   23   12     3     4    1.9558E+06 -4.7161E+04   2.0030E+06  0.000E+00  0.000E+00  0.000E+00  1.09458E+02  2.631E+00  5.000E+00  5.000E+03 -1.886E+01
   1   23   13     3     5    2.0030E+06 -5.0804E+04   2.0538E+06  0.000E+00  0.000E+00  0.000E+00  1.08551E+02  2.669E+00  5.000E+00  5.000E+03 -2.032E+01
   1   23   14     3     6    2.0538E+06 -5.4520E+04   2.1083E+06  0.000E+00  0.000E+00  0.000E+00  1.07647E+02  2.711E+00  5.000E+00  5.000E+03 -2.181E+01
   1   23   15     3     7    2.1083E+06 -6.1862E+04   2.1702E+06  0.000E+00  0.000E+00  0.000E+00  1.06746E+02  2.756E+00  5.000E+00  5.000E+03 -2.474E+01
   1   23   16     3     8    2.1702E+06 -9.0028E+04   2.2602E+06  0.000E+00  0.000E+00  0.000E+00  1.05859E+02  2.814E+00  5.000E+00  5.000E+03 -3.601E+01





     0  LAKE CELLS ARE DRY.

 PERIOD     1     TIME STEP   197     TIME STEP LENGTH  1.1647E+01
 PERIOD TIME  1.4647E+03     TOTAL SIMULATION TIME  1.4647E+03


                 HYDROLOGIC BUDGET SUMMARIES FOR SIMULATED LAKES
     (ALL FLUID FLUXES ARE VOLUMES ADDED TO THE LAKE DURING PRESENT TIME STEP)
     -------------------------------------------------------------------------
 LAKE    STAGE         VOLUME     VOL.CHANGE      PRECIP     EVAPORATION        RUNOFF
   1   117.0291     8.5181E+07    8.0000E+00    8.4443E+05    7.4980E+05    0.0000E+00
   2   111.9661     5.3537E+07    2.8000E+01    8.4443E+05    7.4980E+05    0.0000E+00

            GROUND WATER            SURFACE WATER        WATER
 LAKE    INFLOW     OUTFLOW      INFLOW     OUTFLOW       USE
   1  3.4500E+06  0.0000E+00  1.2147E+07  1.5691E+07  0.0000E+00
   2  3.7539E+06  0.0000E+00  1.7863E+07  2.1712E+07  0.0000E+00

      CONNECTED LAKE   TIME-STEP         STAGE-CHANGE          PERCENT
 LAKE    INFLUX      SURFACE AREA   TIME STEP  CUMULATIVE    DISCREPANCY
   1   0.0000E+00     6.2500E+06   1.1024E-06 -1.2971E+01       0.000
   2   0.0000E+00     6.2500E+06   4.3638E-06 -1.8034E+01       0.000
 --------------------------------------------------------------------------------



            CUMULATIVE HYDROLOGIC BUDGET SUMMARIES FOR SIMULATED LAKES
     (ALL FLUID FLUXES ARE SUMS OF VOLUMES ADDED TO THE LAKE SINCE INITIAL TIME)
     ---------------------------------------------------------------------------
 LAKE       PRECIP       EVAP       RUNOFF
   1     1.0619E+08  9.4291E+07  0.0000E+00
   2     1.0619E+08  9.4291E+07  0.0000E+00

            GROUND WATER            SURFACE WATER
 LAKE    INFLOW     OUTFLOW      INFLOW     OUTFLOW
   1  3.5741E+08  1.5644E+06  1.4609E+09  1.9097E+09
   2  3.9700E+08  1.4259E+06  2.1379E+09  2.6580E+09

         WATER    CONNECTED LAKE   CHANGE       PERCENT
 LAKE     USE         INFLUX       IN VOL.    DISCREPANCY
   1   0.0000E+00   0.0000E+00  -8.1067E+07      0.000
   2   0.0000E+00   0.0000E+00  -1.1271E+08      0.000
 --------------------------------------------------------------------------------

 
 SOLVING FOR HEAD 
     2 ITERATIONS FOR TIME STEP 198 IN STRESS PERIOD    1

 HEAD/DRAWDOWN PRINTOUT FLAG = 0     TOTAL BUDGET PRINTOUT FLAG = 0
 CELL-BY-CELL FLOW TERM FLAG = 1

 OUTPUT FLAGS FOR ALL LAYERS ARE THE SAME:
   HEAD    DRAWDOWN  HEAD  DRAWDOWN
 PRINTOUT  PRINTOUT  SAVE    SAVE
 ----------------------------------
     0         0       0       0



 STREAM LISTING     PERIOD      1   STEP      198

 LAYER ROW COL. STREAM  RCH.  FLOW INTO     FLOW TO   FLOW OUT OF   OVRLND.     DIRECT     STREAM       STREAM     STREAM     STREAM   STREAMBED  STREAMBED
                SEG.NO.  NO.  STRM. RCH.    AQUIFER    STRM. RCH.    RUNOFF     PRECIP       ET          HEAD       DEPTH      WIDTH   CONDCTNC.   GRADIENT

   1    2    5     1     1    6.9120E+05 -8.0029E+04   7.7123E+05  0.000E+00  0.000E+00  0.000E+00  1.25330E+02  1.382E+00  5.000E+00  5.000E+03 -3.201E+01
   1    3    5     1     2    7.7123E+05 -5.6364E+04   8.2759E+05  0.000E+00  0.000E+00  0.000E+00  1.24303E+02  1.458E+00  5.000E+00  5.000E+03 -2.255E+01
   1    4    5     1     3    8.2759E+05 -5.3364E+04   8.8096E+05  0.000E+00  0.000E+00  0.000E+00  1.23258E+02  1.517E+00  5.000E+00  5.000E+03 -2.135E+01
   1    4    6     1     4    8.8096E+05 -4.3621E+04   9.2458E+05  0.000E+00  0.000E+00  0.000E+00  1.22206E+02  1.568E+00  5.000E+00  5.000E+03 -1.745E+01
   1    4    7     1     5    9.2458E+05 -2.1238E+04   9.4582E+05  0.000E+00  0.000E+00  0.000E+00  1.21412E+02  1.602E+00  5.000E+00  2.500E+03 -1.699E+01
   1    4    8     1     6    9.4582E+05 -3.4874E+04   9.8069E+05  0.000E+00  0.000E+00  0.000E+00  1.20751E+02  1.630E+00  5.000E+00  3.750E+03 -1.860E+01
   1    5    8     1     7    9.8069E+05 -3.6826E+04   1.0175E+06  0.000E+00  0.000E+00  0.000E+00  1.19822E+02  1.667E+00  5.000E+00  5.000E+03 -1.473E+01
   1    6    8     1     8    1.0175E+06 -2.5373E+04   1.0429E+06  0.000E+00  0.000E+00  0.000E+00  1.18749E+02  1.697E+00  5.000E+00  5.000E+03 -1.015E+01
   1   12    9     2     1    1.3472E+06 -2.7295E+04   1.3745E+06  0.000E+00  0.000E+00  0.000E+00  1.16632E+02  2.192E+00  5.000E+00  5.000E+03 -1.092E+01
   1   13    9     2     2    1.3745E+06 -4.3002E+04   1.4175E+06  0.000E+00  0.000E+00  0.000E+00  1.15845E+02  2.226E+00  5.000E+00  5.000E+03 -1.720E+01
   1   14   10     2     3    1.4175E+06 -2.3219E+04   1.4407E+06  0.000E+00  0.000E+00  0.000E+00  1.15237E+02  2.258E+00  5.000E+00  2.795E+03 -1.661E+01
   1   14   10     2     4    1.4407E+06 -2.4438E+04   1.4652E+06  0.000E+00  0.000E+00  0.000E+00  1.14801E+02  2.280E+00  5.000E+00  2.795E+03 -1.749E+01
   1   15   10     2     5    1.4652E+06 -4.1063E+04   1.5062E+06  0.000E+00  0.000E+00  0.000E+00  1.14192E+02  2.311E+00  5.000E+00  5.000E+03 -1.643E+01
   1   16   10     2     6    1.5062E+06 -2.7440E+04   1.5337E+06  0.000E+00  0.000E+00  0.000E+00  1.13403E+02  2.343E+00  5.000E+00  5.000E+03 -1.098E+01
   1   22   10     3     1    1.8641E+06 -2.7844E+04   1.8919E+06  0.000E+00  0.000E+00  0.000E+00  1.11505E+02  2.549E+00  5.000E+00  5.000E+03 -1.114E+01
   1   23   10     3     2    1.8919E+06 -4.0104E+04   1.9320E+06  0.000E+00  0.000E+00  0.000E+00  1.10705E+02  2.576E+00  5.000E+00  3.750E+03 -2.139E+01
   1   23   11     3     3    1.9320E+06 -2.3769E+04   1.9558E+06  0.000E+00  0.000E+00  0.000E+00  1.10139E+02  2.602E+00  5.000E+00  2.500E+03 -1.901E+01
   1   23   12     3     4    1.9558E+06 -4.7161E+04   2.0030E+06  0.000E+00  0.000E+00  0.000E+00  1.09458E+02  2.631E+00  5.000E+00  5.000E+03 -1.886E+01
   1   23   13     3     5    2.0030E+06 -5.0804E+04   2.0538E+06  0.000E+00  0.000E+00  0.000E+00  1.08551E+02  2.669E+00  5.000E+00  5.000E+03 -2.032E+01
   1   23   14     3     6    2.0538E+06 -5.4520E+04   2.1083E+06  0.000E+00  0.000E+00  0.000E+00  1.07647E+02  2.711E+00  5.000E+00  5.000E+03 -2.181E+01
   1   23   15     3     7    2.1083E+06 -6.1863E+04   2.1702E+06  0.000E+00  0.000E+00  0.000E+00  1.06746E+02  2.756E+00  5.000E+00  5.000E+03 -2.475E+01
   1   23   16     3     8    2.1702E+06 -9.0028E+04   2.2602E+06  0.000E+00  0.000E+00  0.000E+00  1.05859E+02  2.814E+00  5.000E+00  5.000E+03 -3.601E+01





     0  LAKE CELLS ARE DRY.

 PERIOD     1     TIME STEP   198     TIME STEP LENGTH  1.1706E+01
 PERIOD TIME  1.4764E+03     TOTAL SIMULATION TIME  1.4764E+03


                 HYDROLOGIC BUDGET SUMMARIES FOR SIMULATED LAKES
     (ALL FLUID FLUXES ARE VOLUMES ADDED TO THE LAKE DURING PRESENT TIME STEP)
     -------------------------------------------------------------------------
 LAKE    STAGE         VOLUME     VOL.CHANGE      PRECIP     EVAPORATION        RUNOFF
   1   117.0291     8.5181E+07    4.0000E+01    8.4866E+05    7.5355E+05    0.0000E+00
   2   111.9661     5.3537E+07    8.0000E+01    8.4866E+05    7.5355E+05    0.0000E+00

            GROUND WATER            SURFACE WATER        WATER
 LAKE    INFLOW     OUTFLOW      INFLOW     OUTFLOW       USE
   1  3.4673E+06  0.0000E+00  1.2208E+07  1.5770E+07  0.0000E+00
   2  3.7727E+06  0.0000E+00  1.7953E+07  2.1820E+07  0.0000E+00

      CONNECTED LAKE   TIME-STEP         STAGE-CHANGE          PERCENT
 LAKE    INFLUX      SURFACE AREA   TIME STEP  CUMULATIVE    DISCREPANCY
   1   0.0000E+00     6.2500E+06   6.5509E-06 -1.2971E+01       0.000
   2   0.0000E+00     6.2500E+06   1.2346E-05 -1.8034E+01       0.000
 --------------------------------------------------------------------------------



            CUMULATIVE HYDROLOGIC BUDGET SUMMARIES FOR SIMULATED LAKES
     (ALL FLUID FLUXES ARE SUMS OF VOLUMES ADDED TO THE LAKE SINCE INITIAL TIME)
     ---------------------------------------------------------------------------
 LAKE       PRECIP       EVAP       RUNOFF
   1     1.0704E+08  9.5044E+07  0.0000E+00
   2     1.0704E+08  9.5044E+07  0.0000E+00

            GROUND WATER            SURFACE WATER
 LAKE    INFLOW     OUTFLOW      INFLOW     OUTFLOW
   1  3.6088E+08  1.5644E+06  1.4731E+09  1.9255E+09
   2  4.0077E+08  1.4259E+06  2.1558E+09  2.6799E+09

         WATER    CONNECTED LAKE   CHANGE       PERCENT
 LAKE     USE         INFLUX       IN VOL.    DISCREPANCY
   1   0.0000E+00   0.0000E+00  -8.1067E+07      0.000
   2   0.0000E+00   0.0000E+00  -1.1271E+08      0.000
 --------------------------------------------------------------------------------

 
 SOLVING FOR HEAD 
     2 ITERATIONS FOR TIME STEP 199 IN STRESS PERIOD    1

 HEAD/DRAWDOWN PRINTOUT FLAG = 0     TOTAL BUDGET PRINTOUT FLAG = 0
 CELL-BY-CELL FLOW TERM FLAG = 1

 OUTPUT FLAGS FOR ALL LAYERS ARE THE SAME:
   HEAD    DRAWDOWN  HEAD  DRAWDOWN
 PRINTOUT  PRINTOUT  SAVE    SAVE
 ----------------------------------
     0         0       0       0



 STREAM LISTING     PERIOD      1   STEP      199

 LAYER ROW COL. STREAM  RCH.  FLOW INTO     FLOW TO   FLOW OUT OF   OVRLND.     DIRECT     STREAM       STREAM     STREAM     STREAM   STREAMBED  STREAMBED
                SEG.NO.  NO.  STRM. RCH.    AQUIFER    STRM. RCH.    RUNOFF     PRECIP       ET          HEAD       DEPTH      WIDTH   CONDCTNC.   GRADIENT

   1    2    5     1     1    6.9120E+05 -8.0029E+04   7.7123E+05  0.000E+00  0.000E+00  0.000E+00  1.25330E+02  1.382E+00  5.000E+00  5.000E+03 -3.201E+01
   1    3    5     1     2    7.7123E+05 -5.6364E+04   8.2759E+05  0.000E+00  0.000E+00  0.000E+00  1.24303E+02  1.458E+00  5.000E+00  5.000E+03 -2.255E+01
   1    4    5     1     3    8.2759E+05 -5.3364E+04   8.8096E+05  0.000E+00  0.000E+00  0.000E+00  1.23258E+02  1.517E+00  5.000E+00  5.000E+03 -2.135E+01
   1    4    6     1     4    8.8096E+05 -4.3622E+04   9.2458E+05  0.000E+00  0.000E+00  0.000E+00  1.22206E+02  1.568E+00  5.000E+00  5.000E+03 -1.745E+01
   1    4    7     1     5    9.2458E+05 -2.1238E+04   9.4582E+05  0.000E+00  0.000E+00  0.000E+00  1.21412E+02  1.602E+00  5.000E+00  2.500E+03 -1.699E+01
   1    4    8     1     6    9.4582E+05 -3.4874E+04   9.8069E+05  0.000E+00  0.000E+00  0.000E+00  1.20751E+02  1.630E+00  5.000E+00  3.750E+03 -1.860E+01
   1    5    8     1     7    9.8069E+05 -3.6826E+04   1.0175E+06  0.000E+00  0.000E+00  0.000E+00  1.19822E+02  1.667E+00  5.000E+00  5.000E+03 -1.473E+01
   1    6    8     1     8    1.0175E+06 -2.5374E+04   1.0429E+06  0.000E+00  0.000E+00  0.000E+00  1.18749E+02  1.697E+00  5.000E+00  5.000E+03 -1.015E+01
   1   12    9     2     1    1.3472E+06 -2.7295E+04   1.3745E+06  0.000E+00  0.000E+00  0.000E+00  1.16632E+02  2.192E+00  5.000E+00  5.000E+03 -1.092E+01
   1   13    9     2     2    1.3745E+06 -4.3002E+04   1.4175E+06  0.000E+00  0.000E+00  0.000E+00  1.15845E+02  2.226E+00  5.000E+00  5.000E+03 -1.720E+01
   1   14   10     2     3    1.4175E+06 -2.3219E+04   1.4407E+06  0.000E+00  0.000E+00  0.000E+00  1.15237E+02  2.258E+00  5.000E+00  2.795E+03 -1.661E+01
   1   14   10     2     4    1.4407E+06 -2.4438E+04   1.4652E+06  0.000E+00  0.000E+00  0.000E+00  1.14801E+02  2.280E+00  5.000E+00  2.795E+03 -1.749E+01
   1   15   10     2     5    1.4652E+06 -4.1064E+04   1.5062E+06  0.000E+00  0.000E+00  0.000E+00  1.14192E+02  2.311E+00  5.000E+00  5.000E+03 -1.643E+01
   1   16   10     2     6    1.5062E+06 -2.7441E+04   1.5337E+06  0.000E+00  0.000E+00  0.000E+00  1.13403E+02  2.343E+00  5.000E+00  5.000E+03 -1.098E+01
   1   22   10     3     1    1.8641E+06 -2.7845E+04   1.8919E+06  0.000E+00  0.000E+00  0.000E+00  1.11505E+02  2.549E+00  5.000E+00  5.000E+03 -1.114E+01
   1   23   10     3     2    1.8919E+06 -4.0104E+04   1.9321E+06  0.000E+00  0.000E+00  0.000E+00  1.10705E+02  2.577E+00  5.000E+00  3.750E+03 -2.139E+01
   1   23   11     3     3    1.9321E+06 -2.3769E+04   1.9558E+06  0.000E+00  0.000E+00  0.000E+00  1.10139E+02  2.602E+00  5.000E+00  2.500E+03 -1.902E+01
   1   23   12     3     4    1.9558E+06 -4.7161E+04   2.0030E+06  0.000E+00  0.000E+00  0.000E+00  1.09458E+02  2.631E+00  5.000E+00  5.000E+03 -1.886E+01
   1   23   13     3     5    2.0030E+06 -5.0804E+04   2.0538E+06  0.000E+00  0.000E+00  0.000E+00  1.08551E+02  2.669E+00  5.000E+00  5.000E+03 -2.032E+01
   1   23   14     3     6    2.0538E+06 -5.4520E+04   2.1083E+06  0.000E+00  0.000E+00  0.000E+00  1.07647E+02  2.711E+00  5.000E+00  5.000E+03 -2.181E+01
   1   23   15     3     7    2.1083E+06 -6.1863E+04   2.1702E+06  0.000E+00  0.000E+00  0.000E+00  1.06746E+02  2.756E+00  5.000E+00  5.000E+03 -2.475E+01
   1   23   16     3     8    2.1702E+06 -9.0028E+04   2.2602E+06  0.000E+00  0.000E+00  0.000E+00  1.05859E+02  2.814E+00  5.000E+00  5.000E+03 -3.601E+01





     0  LAKE CELLS ARE DRY.

 PERIOD     1     TIME STEP   199     TIME STEP LENGTH  1.1764E+01
 PERIOD TIME  1.4882E+03     TOTAL SIMULATION TIME  1.4882E+03


                 HYDROLOGIC BUDGET SUMMARIES FOR SIMULATED LAKES
     (ALL FLUID FLUXES ARE VOLUMES ADDED TO THE LAKE DURING PRESENT TIME STEP)
     -------------------------------------------------------------------------
 LAKE    STAGE         VOLUME     VOL.CHANGE      PRECIP     EVAPORATION        RUNOFF
   1   117.0291     8.5181E+07    8.0000E+00    8.5290E+05    7.5732E+05    0.0000E+00
   2   111.9661     5.3537E+07    2.4000E+01    8.5290E+05    7.5732E+05    0.0000E+00

            GROUND WATER            SURFACE WATER        WATER
 LAKE    INFLOW     OUTFLOW      INFLOW     OUTFLOW       USE
   1  3.4846E+06  0.0000E+00  1.2269E+07  1.5849E+07  0.0000E+00
   2  3.7916E+06  0.0000E+00  1.8042E+07  2.1930E+07  0.0000E+00

      CONNECTED LAKE   TIME-STEP         STAGE-CHANGE          PERCENT
 LAKE    INFLUX      SURFACE AREA   TIME STEP  CUMULATIVE    DISCREPANCY
   1   0.0000E+00     6.2500E+06   8.7822E-07 -1.2971E+01       0.000
   2   0.0000E+00     6.2500E+06   4.4664E-06 -1.8034E+01       0.000
 --------------------------------------------------------------------------------



            CUMULATIVE HYDROLOGIC BUDGET SUMMARIES FOR SIMULATED LAKES
     (ALL FLUID FLUXES ARE SUMS OF VOLUMES ADDED TO THE LAKE SINCE INITIAL TIME)
     ---------------------------------------------------------------------------
 LAKE       PRECIP       EVAP       RUNOFF
   1     1.0789E+08  9.5801E+07  0.0000E+00
   2     1.0789E+08  9.5801E+07  0.0000E+00

            GROUND WATER            SURFACE WATER
 LAKE    INFLOW     OUTFLOW      INFLOW     OUTFLOW
   1  3.6436E+08  1.5644E+06  1.4853E+09  1.9413E+09
   2  4.0457E+08  1.4259E+06  2.1739E+09  2.7018E+09

         WATER    CONNECTED LAKE   CHANGE       PERCENT
 LAKE     USE         INFLUX       IN VOL.    DISCREPANCY
   1   0.0000E+00   0.0000E+00  -8.1067E+07      0.000
   2   0.0000E+00   0.0000E+00  -1.1271E+08      0.000
 --------------------------------------------------------------------------------

 
 SOLVING FOR HEAD 
     2 ITERATIONS FOR TIME STEP 200 IN STRESS PERIOD    1

 MAXIMUM HEAD CHANGE FOR EACH ITERATION:

    HEAD CHANGE   HEAD CHANGE   HEAD CHANGE   HEAD CHANGE   HEAD CHANGE
  LAYER,ROW,COL LAYER,ROW,COL LAYER,ROW,COL LAYER,ROW,COL LAYER,ROW,COL
 ----------------------------------------------------------------------
     0.1483E-03    0.7796E-04
  (  1, 14,  6) (  5, 14,  7)


 HEAD/DRAWDOWN PRINTOUT FLAG = 1     TOTAL BUDGET PRINTOUT FLAG = 1
 CELL-BY-CELL FLOW TERM FLAG = 1

 OUTPUT FLAGS FOR EACH LAYER:
          HEAD    DRAWDOWN  HEAD  DRAWDOWN
 LAYER  PRINTOUT  PRINTOUT  SAVE    SAVE
 -----------------------------------------
    1       0         0       0       0
    2       0         0       0       0
    3       0         0       0       0
    4       0         0       0       0
    5       1         0       0       0



 STREAM LISTING     PERIOD      1   STEP      200

 LAYER ROW COL. STREAM  RCH.  FLOW INTO     FLOW TO   FLOW OUT OF   OVRLND.     DIRECT     STREAM       STREAM     STREAM     STREAM   STREAMBED  STREAMBED
                SEG.NO.  NO.  STRM. RCH.    AQUIFER    STRM. RCH.    RUNOFF     PRECIP       ET          HEAD       DEPTH      WIDTH   CONDCTNC.   GRADIENT

   1    2    5     1     1    6.9120E+05 -8.0030E+04   7.7123E+05  0.000E+00  0.000E+00  0.000E+00  1.25330E+02  1.382E+00  5.000E+00  5.000E+03 -3.201E+01
   1    3    5     1     2    7.7123E+05 -5.6364E+04   8.2759E+05  0.000E+00  0.000E+00  0.000E+00  1.24303E+02  1.458E+00  5.000E+00  5.000E+03 -2.255E+01
   1    4    5     1     3    8.2759E+05 -5.3364E+04   8.8096E+05  0.000E+00  0.000E+00  0.000E+00  1.23258E+02  1.517E+00  5.000E+00  5.000E+03 -2.135E+01
   1    4    6     1     4    8.8096E+05 -4.3622E+04   9.2458E+05  0.000E+00  0.000E+00  0.000E+00  1.22206E+02  1.568E+00  5.000E+00  5.000E+03 -1.745E+01
   1    4    7     1     5    9.2458E+05 -2.1238E+04   9.4582E+05  0.000E+00  0.000E+00  0.000E+00  1.21412E+02  1.602E+00  5.000E+00  2.500E+03 -1.699E+01
   1    4    8     1     6    9.4582E+05 -3.4874E+04   9.8069E+05  0.000E+00  0.000E+00  0.000E+00  1.20751E+02  1.630E+00  5.000E+00  3.750E+03 -1.860E+01
   1    5    8     1     7    9.8069E+05 -3.6826E+04   1.0175E+06  0.000E+00  0.000E+00  0.000E+00  1.19822E+02  1.667E+00  5.000E+00  5.000E+03 -1.473E+01
   1    6    8     1     8    1.0175E+06 -2.5374E+04   1.0429E+06  0.000E+00  0.000E+00  0.000E+00  1.18749E+02  1.697E+00  5.000E+00  5.000E+03 -1.015E+01
   1   12    9     2     1    1.3472E+06 -2.7295E+04   1.3745E+06  0.000E+00  0.000E+00  0.000E+00  1.16632E+02  2.192E+00  5.000E+00  5.000E+03 -1.092E+01
   1   13    9     2     2    1.3745E+06 -4.3002E+04   1.4175E+06  0.000E+00  0.000E+00  0.000E+00  1.15845E+02  2.226E+00  5.000E+00  5.000E+03 -1.720E+01
   1   14   10     2     3    1.4175E+06 -2.3219E+04   1.4407E+06  0.000E+00  0.000E+00  0.000E+00  1.15237E+02  2.258E+00  5.000E+00  2.795E+03 -1.661E+01
   1   14   10     2     4    1.4407E+06 -2.4439E+04   1.4652E+06  0.000E+00  0.000E+00  0.000E+00  1.14801E+02  2.280E+00  5.000E+00  2.795E+03 -1.749E+01
   1   15   10     2     5    1.4652E+06 -4.1064E+04   1.5062E+06  0.000E+00  0.000E+00  0.000E+00  1.14192E+02  2.311E+00  5.000E+00  5.000E+03 -1.643E+01
   1   16   10     2     6    1.5062E+06 -2.7441E+04   1.5337E+06  0.000E+00  0.000E+00  0.000E+00  1.13403E+02  2.343E+00  5.000E+00  5.000E+03 -1.098E+01
   1   22   10     3     1    1.8641E+06 -2.7845E+04   1.8920E+06  0.000E+00  0.000E+00  0.000E+00  1.11505E+02  2.549E+00  5.000E+00  5.000E+03 -1.114E+01
   1   23   10     3     2    1.8920E+06 -4.0104E+04   1.9321E+06  0.000E+00  0.000E+00  0.000E+00  1.10705E+02  2.577E+00  5.000E+00  3.750E+03 -2.139E+01
   1   23   11     3     3    1.9321E+06 -2.3769E+04   1.9558E+06  0.000E+00  0.000E+00  0.000E+00  1.10139E+02  2.602E+00  5.000E+00  2.500E+03 -1.902E+01
   1   23   12     3     4    1.9558E+06 -4.7162E+04   2.0030E+06  0.000E+00  0.000E+00  0.000E+00  1.09458E+02  2.631E+00  5.000E+00  5.000E+03 -1.886E+01
   1   23   13     3     5    2.0030E+06 -5.0805E+04   2.0538E+06  0.000E+00  0.000E+00  0.000E+00  1.08551E+02  2.669E+00  5.000E+00  5.000E+03 -2.032E+01
   1   23   14     3     6    2.0538E+06 -5.4520E+04   2.1083E+06  0.000E+00  0.000E+00  0.000E+00  1.07647E+02  2.711E+00  5.000E+00  5.000E+03 -2.181E+01
   1   23   15     3     7    2.1083E+06 -6.1863E+04   2.1702E+06  0.000E+00  0.000E+00  0.000E+00  1.06746E+02  2.756E+00  5.000E+00  5.000E+03 -2.475E+01
   1   23   16     3     8    2.1702E+06 -9.0028E+04   2.2602E+06  0.000E+00  0.000E+00  0.000E+00  1.05859E+02  2.814E+00  5.000E+00  5.000E+03 -3.601E+01





     0  LAKE CELLS ARE DRY.

 PERIOD     1     TIME STEP   200     TIME STEP LENGTH  1.1823E+01
 PERIOD TIME  1.5000E+03     TOTAL SIMULATION TIME  1.5000E+03


                 HYDROLOGIC BUDGET SUMMARIES FOR SIMULATED LAKES
     (ALL FLUID FLUXES ARE VOLUMES ADDED TO THE LAKE DURING PRESENT TIME STEP)
     -------------------------------------------------------------------------
 LAKE    STAGE         VOLUME     VOL.CHANGE      PRECIP     EVAPORATION        RUNOFF
   1   117.0291     8.5181E+07    8.0000E+00    8.5716E+05    7.6110E+05    0.0000E+00
   2   111.9661     5.3537E+07    1.2000E+01    8.5716E+05    7.6110E+05    0.0000E+00

            GROUND WATER            SURFACE WATER        WATER
 LAKE    INFLOW     OUTFLOW      INFLOW     OUTFLOW       USE
   1  3.5020E+06  0.0000E+00  1.2330E+07  1.5928E+07  0.0000E+00
   2  3.8106E+06  0.0000E+00  1.8133E+07  2.2039E+07  0.0000E+00

      CONNECTED LAKE   TIME-STEP         STAGE-CHANGE          PERCENT
 LAKE    INFLUX      SURFACE AREA   TIME STEP  CUMULATIVE    DISCREPANCY
   1   0.0000E+00     6.2500E+06   7.6439E-07 -1.2971E+01       0.000
   2   0.0000E+00     6.2500E+06   1.2965E-06 -1.8034E+01       0.000
 --------------------------------------------------------------------------------



            CUMULATIVE HYDROLOGIC BUDGET SUMMARIES FOR SIMULATED LAKES
     (ALL FLUID FLUXES ARE SUMS OF VOLUMES ADDED TO THE LAKE SINCE INITIAL TIME)
     ---------------------------------------------------------------------------
 LAKE       PRECIP       EVAP       RUNOFF
   1     1.0875E+08  9.6562E+07  0.0000E+00
   2     1.0875E+08  9.6562E+07  0.0000E+00

            GROUND WATER            SURFACE WATER
 LAKE    INFLOW     OUTFLOW      INFLOW     OUTFLOW
   1  3.6787E+08  1.5644E+06  1.4977E+09  1.9572E+09
   2  4.0838E+08  1.4259E+06  2.1920E+09  2.7238E+09

         WATER    CONNECTED LAKE   CHANGE       PERCENT
 LAKE     USE         INFLUX       IN VOL.    DISCREPANCY
   1   0.0000E+00   0.0000E+00  -8.1067E+07      0.000
   2   0.0000E+00   0.0000E+00  -1.1271E+08      0.000
 --------------------------------------------------------------------------------

1
              HEAD IN LAYER   5 AT END OF TIME STEP 200 IN STRESS PERIOD    1
  ---------------------------------------------------------------------------

          1      2      3      4      5      6      7      8      9     10
 .........................................................................
   1   160.0  158.9  157.3  155.8  154.2  152.7  151.5  150.8  150.0  149.2
   2   160.0  158.2  155.3  151.1  141.4  146.7  147.2  147.2  147.0  146.6
   3   160.0  157.6  153.6  147.6  135.6  139.9  140.8  141.3  142.1  142.8
   4   160.0  157.3  153.0  146.7  134.0  130.9  129.9  130.1  135.4  138.2
   5   160.0  157.3  153.3  148.3  141.8  136.2  131.3  127.2  131.5  134.5
   6   160.0  157.4  153.6  149.3  143.7  136.2  128.4  123.8  126.1  128.1
   7   160.0  157.5  153.7  149.5  143.7  133.6  117.9  117.3  117.3  117.4
   8   160.0  157.5  153.8  149.6  143.7  132.8  117.5  117.1  117.0  117.1
   9   160.0  157.5  153.9  149.8  143.8  132.8  117.5  117.0  117.0  117.0
  10   160.0  157.6  154.0  150.0  144.2  133.3  117.6  117.1  117.0  117.1
  11   160.0  157.6  154.1  150.2  144.7  134.7  118.0  117.4  117.2  117.3
  12   160.0  157.6  154.3  150.6  145.9  138.7  130.8  126.5  122.1  125.0
  13   160.0  157.7  154.4  151.1  147.0  141.5  135.8  131.0  124.5  127.8
  14   160.0  157.7  154.5  151.2  147.3  142.4  137.6  133.6  128.9  123.6
  15   160.0  157.7  154.4  151.0  146.9  141.4  136.2  132.3  127.8  122.4
  16   160.0  157.6  154.2  150.5  145.5  137.8  129.5  125.5  122.3  118.9
  17   160.0  157.6  154.1  150.1  144.2  132.7  113.1  112.4  112.3  112.2
  18   160.0  157.6  154.1  150.0  143.7  131.1  112.6  112.0  112.0  112.0
  19   160.0  157.6  154.1  149.9  143.6  130.7  112.6  112.0  112.0  112.0
  20   160.0  157.6  154.2  150.1  143.8  131.3  112.6  112.0  112.0  112.0
  21   160.0  157.7  154.3  150.4  144.6  133.1  113.2  112.4  112.3  112.2
  22   160.0  157.7  154.5  151.0  146.2  138.7  130.3  126.1  122.1  117.1
  23   160.0  157.9  154.9  151.9  148.3  143.6  138.9  135.1  129.8  121.4
  24   160.0  158.0  155.4  152.8  150.0  146.8  143.9  141.8  139.5  137.3
  25   160.0  158.2  155.9  153.7  151.5  149.1  147.2  145.9  144.6  143.3
  26   160.0  158.5  156.6  154.8  153.0  151.2  149.8  148.8  147.9  147.0
  27   160.0  158.9  157.3  155.8  154.2  152.7  151.5  150.8  150.0  149.2
1
              HEAD IN LAYER   5 AT END OF TIME STEP 200 IN STRESS PERIOD    1
  ---------------------------------------------------------------------------

         11     12     13     14     15     16     17
 ....................................................
   1   148.5  147.3  145.8  144.2  142.7  141.1  140.0
   2   146.3  145.6  144.4  143.1  141.8  140.5  140.0
   3   143.1  143.3  142.8  141.9  141.0  140.2  140.0
   4   139.8  141.1  141.4  141.1  140.5  139.9  140.0
   5   136.5  138.7  140.0  140.3  140.0  139.8  140.0
   6   130.4  135.2  138.4  139.5  139.7  139.7  140.0
   7   117.9  131.3  137.2  139.0  139.5  139.6  140.0
   8   117.5  130.0  136.6  138.8  139.4  139.6  140.0
   9   117.4  129.5  136.3  138.7  139.3  139.6  140.0
  10   117.4  129.6  136.4  138.6  139.3  139.5  140.0
  11   117.8  130.5  136.6  138.7  139.3  139.5  140.0
  12   127.9  133.4  137.3  138.9  139.3  139.5  140.0
  13   131.0  135.1  137.9  139.0  139.4  139.5  140.0
  14   129.3  134.7  137.8  138.9  139.3  139.5  140.0
  15   127.7  133.5  137.1  138.6  139.1  139.5  140.0
  16   123.5  130.8  135.9  137.9  138.8  139.3  140.0
  17   112.8  127.1  134.5  137.2  138.3  139.1  140.0
  18   112.4  125.7  133.7  136.6  137.9  138.9  140.0
  19   112.4  124.8  132.9  135.9  137.3  138.6  140.0
  20   112.4  124.3  132.0  134.8  136.3  138.1  140.0
  21   112.6  124.0  130.8  133.4  134.9  137.2  140.0
  22   119.7  124.1  128.0  129.9  131.5  134.9  140.0
  23   119.7  118.9  118.7  118.6  119.1  123.9  140.0
  24   135.7  134.1  132.9  132.2  132.5  135.2  140.0
  25   142.2  140.8  139.3  138.3  137.8  138.5  140.0
  26   146.1  144.9  143.4  142.0  140.9  140.1  140.0
  27   148.5  147.3  145.8  144.2  142.7  141.1  140.0
1
  VOLUMETRIC BUDGET FOR ENTIRE MODEL AT END OF TIME STEP200 IN STRESS PERIOD   1
  ------------------------------------------------------------------------------

     CUMULATIVE VOLUMES      L**3       RATES FOR THIS TIME STEP      L**3/T
     ------------------                 ------------------------

           IN:                                      IN:
           ---                                      ---
             STORAGE =     2934580.5000               STORAGE =       1.0358E-03
       CONSTANT HEAD =  1307436288.0000         CONSTANT HEAD =      540284.7500
                  ET =           0.0000                    ET =           0.0000
            RECHARGE =  4132498432.0000              RECHARGE =     2755000.0000
     SPECIFIED FLOWS =           0.0000       SPECIFIED FLOWS =           0.0000
      STREAM LEAKAGE =     3694574.2500        STREAM LEAKAGE =           0.0000
       LAKE  SEEPAGE =     2990331.7500         LAKE  SEEPAGE =           0.0000

            TOTAL IN =  5449554432.0000              TOTAL IN =     3295284.7500

          OUT:                                     OUT:
          ----                                     ----
             STORAGE =  1271903744.0000               STORAGE =         271.8887
       CONSTANT HEAD =     2961508.5000         CONSTANT HEAD =        2777.0815
                  ET =  2149150208.0000                    ET =     1739480.5000
            RECHARGE =           0.0000              RECHARGE =           0.0000
     SPECIFIED FLOWS =           0.0000       SPECIFIED FLOWS =           0.0000
      STREAM LEAKAGE =  1249287680.0000        STREAM LEAKAGE =      934245.2500
       LAKE  SEEPAGE =   776242560.0000         LAKE  SEEPAGE =      618511.3125

           TOTAL OUT =  5449545728.0000             TOTAL OUT =     3295286.0000

            IN - OUT =        8704.0000              IN - OUT =          -1.2500

 PERCENT DISCREPANCY =           0.00     PERCENT DISCREPANCY =           0.00






          TIME SUMMARY AT END OF TIME STEP 200 IN STRESS PERIOD    1
                    SECONDS     MINUTES      HOURS       DAYS        YEARS
                    -----------------------------------------------------------
   TIME STEP LENGTH 1.02150E+06  17025.      283.75      11.823     3.23695E-02
 STRESS PERIOD TIME 1.29600E+08 2.16000E+06  36000.      1500.0      4.1068    
         TOTAL TIME 1.29600E+08 2.16000E+06  36000.      1500.0      4.1068    
1
