                                  MODFLOW-2000
      U.S. GEOLOGICAL SURVEY MODULAR FINITE-DIFFERENCE GROUND-WATER FLOW MODEL
                           VERSION 1.19.01 03/25/2010


 This model run combines GLOBAL and LIST output into this single file.

 GLOBAL LISTING FILE: l3_2k.lst
                         UNIT    1

 OPENING l3_2k.gs1
 FILE TYPE:DATA   UNIT   26   STATUS:UNKNOWN
 FORMAT:FORMATTED              ACCESS:SEQUENTIAL          

 OPENING l3_2k.gs2
 FILE TYPE:DATA   UNIT   27   STATUS:UNKNOWN
 FORMAT:FORMATTED              ACCESS:SEQUENTIAL          

 OPENING l3_2k.gs3
 FILE TYPE:DATA   UNIT   28   STATUS:UNKNOWN
 FORMAT:FORMATTED              ACCESS:SEQUENTIAL          

 OPENING l3_2k.gs4
 FILE TYPE:DATA   UNIT   29   STATUS:UNKNOWN
 FORMAT:FORMATTED              ACCESS:SEQUENTIAL          
#                                                                                                                                                                                                       
# Input files                                                                                                                                                                                           

 OPENING ../data/l3_2k.ba6
 FILE TYPE:BAS6   UNIT    7   STATUS:OLD    
 FORMAT:FORMATTED              ACCESS:SEQUENTIAL          

 OPENING ../data/l3_2k.bc6
 FILE TYPE:BCF6   UNIT   10   STATUS:OLD    
 FORMAT:FORMATTED              ACCESS:SEQUENTIAL          

 OPENING ../data/l3_2k.evt
 FILE TYPE:EVT   UNIT   11   STATUS:OLD    
 FORMAT:FORMATTED              ACCESS:SEQUENTIAL          

 OPENING ../data/l3_2k.rch
 FILE TYPE:RCH   UNIT   12   STATUS:OLD    
 FORMAT:FORMATTED              ACCESS:SEQUENTIAL          

 OPENING ../data/l3_2k.sip
 FILE TYPE:SIP   UNIT   13   STATUS:OLD    
 FORMAT:FORMATTED              ACCESS:SEQUENTIAL          
#pcg  13 ../data/l3_2k.pcg                                                                                                                                                                              

 OPENING ../data/l3_2k.oc
 FILE TYPE:OC   UNIT   17   STATUS:OLD    
 FORMAT:FORMATTED              ACCESS:SEQUENTIAL          

 OPENING ../data/l3_2k.fhb
 FILE TYPE:FHB   UNIT   21   STATUS:OLD    
 FORMAT:FORMATTED              ACCESS:SEQUENTIAL          

 OPENING ../data/l3_2k.lak
 FILE TYPE:LAK   UNIT   16   STATUS:OLD    
 FORMAT:FORMATTED              ACCESS:SEQUENTIAL          

 OPENING ../data/l3_2k.dis
 FILE TYPE:DIS   UNIT   22   STATUS:OLD    
 FORMAT:FORMATTED              ACCESS:SEQUENTIAL          

 OPENING ../data/l3_2k.gge
 FILE TYPE:GAGE   UNIT   24   STATUS:OLD    
 FORMAT:FORMATTED              ACCESS:SEQUENTIAL          


 DISCRETIZATION INPUT DATA READ FROM UNIT   22
    5 LAYERS        17 ROWS        22 COLUMNS
    2 STRESS PERIOD(S) IN SIMULATION
 MODEL TIME UNIT IS DAYS
 MODEL LENGTH UNIT IS UNDEFINED
 THE GROUND-WATER TRANSPORT PROCESS IS INACTIVE

 THE OBSERVATION PROCESS IS INACTIVE
 THE SENSITIVITY PROCESS IS INACTIVE
 THE PARAMETER-ESTIMATION PROCESS IS INACTIVE

 MODE: FORWARD

  Confining bed flag for each layer:
   0   0   0   0   0

      16869  ELEMENTS OF GX ARRAY USED OUT OF      16869
       1870  ELEMENTS OF GZ ARRAY USED OUT OF       1870
       1870  ELEMENTS OF IG ARRAY USED OUT OF       1870



                               DELR
 READING ON UNIT   22 WITH FORMAT: (7F10.0)            
   250.00       1000.0       1000.0       1000.0       500.00       500.00       500.00       500.00       500.00       500.00    
   500.00       500.00       500.00       500.00       500.00       500.00       500.00       500.00       500.00       1000.0    
   1000.0       250.00    



                               DELC
 READING ON UNIT   22 WITH FORMAT: (7F10.0)            
   250.00       1000.0       1000.0       1000.0       1000.0       1000.0       500.00       500.00       500.00       500.00    
   500.00       1000.0       1000.0       1000.0       1000.0       1000.0       250.00    

 TOP ELEVATION OF LAYER 1 =   300.000    

   MODEL LAYER BOTTOM EL. =   107.000     FOR LAYER   1

   MODEL LAYER BOTTOM EL. =   97.0000     FOR LAYER   2

   MODEL LAYER BOTTOM EL. =   87.0000     FOR LAYER   3

   MODEL LAYER BOTTOM EL. =   77.0000     FOR LAYER   4

   MODEL LAYER BOTTOM EL. =   67.0000     FOR LAYER   5


 STRESS PERIOD     LENGTH       TIME STEPS     MULTIPLIER FOR DELT    SS FLAG
 ----------------------------------------------------------------------------
        1         400.0000         50                    1.030         TR
        2         400.0000         50                    1.030         TR

 TRANSIENT SIMULATION




 SIP5 -- STRONGLY IMPLICIT PROCEDURE SOLUTION PACKAGE
                    VERSION 5, 9/1/93 INPUT READ FROM UNIT   13
 MAXIMUM OF 300 ITERATIONS ALLOWED FOR CLOSURE
  5 ITERATION PARAMETERS
       7785 ELEMENTS IN X ARRAY ARE USED BY SIP
        900 ELEMENTS IN IX ARRAY ARE USED BY SIP

       7785  ELEMENTS OF X ARRAY USED OUT OF       7785
          0  ELEMENTS OF Z ARRAY USED OUT OF          1
        900  ELEMENTS OF IX ARRAY USED OUT OF        900
          0  ELEMENTS OF XHS ARRAY USED OUT OF          1



          SOLUTION BY THE STRONGLY IMPLICIT PROCEDURE
          -------------------------------------------
 MAXIMUM ITERATIONS ALLOWED FOR CLOSURE =      300
                 ACCELERATION PARAMETER =     1.0000    
      HEAD CHANGE CRITERION FOR CLOSURE =    0.10000E-03
      SIP HEAD CHANGE PRINTOUT INTERVAL =      999

     CALCULATE ITERATION PARAMETERS FROM MODEL CALCULATED WSEED
 
 # Separation and Coalescence in a multiple-lake system                          
    5 LAYERS        17 ROWS        22 COLUMNS
    2 STRESS PERIOD(S) IN SIMULATION

 BAS6 -- BASIC PACKAGE, VERSION 6, 1/11/2000 INPUT READ FROM UNIT    7
         25 ELEMENTS IN IR ARRAY ARE USED BY BAS

 BCF6 -- BLOCK-CENTERED FLOW PACKAGE, VERSION 6, 1/11/2000
         INPUT READ FROM UNIT 10
 TRANSIENT SIMULATION
 HEAD AT CELLS THAT CONVERT TO DRY=   0.0000    
 WETTING CAPABILITY IS ACTIVE
 WETTING FACTOR=   1.00000     WETTING ITERATION INTERVAL=   1
 FLAG THAT SPECIFIES THE EQUATION TO USE FOR HEAD AT WETTED CELLS=   0
      LAYER  LAYER-TYPE CODE     INTERBLOCK T
      --------------------------------------------
         1            1          0 -- HARMONIC    
         2            3          0 -- HARMONIC    
         3            3          0 -- HARMONIC    
         4            3          0 -- HARMONIC    
         5            3          0 -- HARMONIC    
       8607 ELEMENTS IN RX ARRAY ARE USED BY BCF

 EVT6 -- EVAPOTRANSPIRATION PACKAGE, VERSION 6, 12/14/2000
         INPUT READ FROM UNIT   11
 No named parameters
 OPTION 3 -- EVAPOTRANSPIRATION FROM HIGHEST ACTIVE NODE IN EACH VERTICAL COLUMN
       1122 ELEMENTS IN RX ARRAY ARE USED BY EVT
        374 ELEMENTS IN IR ARRAY ARE USED BY EVT

 RCH6 -- RECHARGE PACKAGE, VERSION 6, 1/11/2000 INPUT READ FROM UNIT   12
 No named parameters
 OPTION 3 -- RECHARGE TO HIGHEST ACTIVE NODE IN EACH VERTICAL COLUMN
        374 ELEMENTS IN RX ARRAY ARE USED BY RCH
        374 ELEMENTS IN IR ARRAY ARE USED BY RCH
0FHB1 -- SPECIFIED FLOW PACKAGE, VERSION 1,12/3/96 INPUT READ FROM 21
  SPECIFIED FLOW AND HEAD VALUES WILL REMAIN CONSTANT FOR ENTIRE SIMULATION.
 FLOW WILL BE SPECIFIED AT A TOTAL OF    0 CELLS.
 HEAD WILL BE SPECIFIED AT A TOTAL OF  370 CELLS.
 FHB STEADY-STATE OPTION FLAG WILL BE IGNORED,
 AT LEAST ONE STRESS PERIOD IS TRANSIENT.
  0 AUXILIARY VARIABLES FOR SPECIFIED-FLOW CELLS WILL
  BE DEFINED BY FHB FOR USE BY OTHER PACKAGES.
  0 AUXILIARY VARIABLES FOR SPECIFIED-HEAD CELLS WILL
  BE DEFINED BY FHB FOR USE BY OTHER PACKAGES.
      371 ELEMENTS IN RX ARRAY ARE USED FOR FHB1
     1480 ELEMENTS IN IR ARRAY ARE USED FOR FHB1

 LAK3 -- LAKE PACKAGE, VERSION 3.2, 1/29/2010 INPUT READ FROM UNIT 16
 SPACE ALLOCATION FOR    935 GRID CELL FACES ADJACENT TO LAKES
 MAXIMUM NUMBER OF LAKES IS  4 FOR THIS SIMULATION
 CELL-BY-CELL SEEPAGES WILL NOT BE PRINTED OR SAVED

 THETA =  1.000
 THETA IS THE TIME WEIGHTING FACTOR FOR COMPUTING LAKE STAGE DURING TRANSIENT MODFLOW TIME STEPS AND ITS DEFINITION HAS BEEN MODIFIED.
 THETA CAN BE 0, OR BETWEEN 0.5 AND 1.0. VALUES LESS THAN 0.5 ARE RESET TO 0.0 AND VALUES GREATER THAN 1.0 ARE RESET TO 1.0. 
 A THETA OF 0.0 REPRESENTS THE LAKE STAGE FROM THE END OF THE PREVIOUS TIME STEP.
 A THETA OF 0.5 REPRESENTS THE AVERAGE LAKE STAGE DURING A TIME STEP.
 A THETA OF 1.0 REPRESENTS THE LAKE STAGE AT THE END OF THE TIME STEP.




 LAKE PACKAGE HAS BEEN MODIFIED TO ITERATIVELY SOLVE FOR LAKE STAGE DURING TRANSIENT STRESS PERIODS:
 MAXIMUM NUMBER OF ITERATIONS (NSSITR) =   100
 CLOSURE CRITERIA FOR LAKE STAGE (SSCNCR) = 1.000000E-07
 MAGNITUDE OF SURFACE UNDULATIONS OF LAKE BED (SURFDEPTH) = 1.000000E-01
 DEFAULT VALUES FOR TRANSIENT ONLY SIMULATIONS ARE: NSSITR = 100, SSCNCR = 0.0001, AND SURFDEPTH = 1.0
 VALUES OTHER THAN DEFAULT CAN BE READ BY SPECIFYING A THETA LESS THAN ZERO THEN ADDING NSSITR AND SSCNCR PER ORIGINAL INSTRUCTIONS AND SURFDEPTH TO APPROXIMATE UNDULATIONS IN THE LAKEBED
 NEGATIVE THETA MUST BE LESS THAN ZERO BUT NOT MORE THAN ONE. THETA IS CONVERTED TO A POSITIVE VALUE.
 MINIMUM AND MAXIMUM LAKE STAGES FOR TRANSIENT SIMULATIONS ARE SET TO BOTTOM AND TOP ELEVATIONS USED TO COMPUTE LAKE VOLUME, RESPECTIVELY.


       5789 ELEMENTS IN RX ARRAY ARE USED BY LAK
        644 ELEMENTS IN RZ ARRAY ARE USED BY LAK
       8499 ELEMENTS IN IR ARRAY ARE USED BY LAK
          0 ELEMENTS IN RX ARRAY ARE USED BY GAGE
         23 ELEMENTS IN IR ARRAY ARE USED BY GAGE

      16263  ELEMENTS OF RX ARRAY USED OUT OF      16263
        648  ELEMENTS OF RZ ARRAY USED OUT OF        648
      10775  ELEMENTS OF IR ARRAY USED OUT OF      10775
1
 # Separation and Coalescence in a multiple-lake system                          
                                                                                 



                     BOUNDARY ARRAY FOR LAYER   1
 READING ON UNIT    7 WITH FORMAT: (24I3)              

        1   2   3   4   5   6   7   8   9  10  11  12  13  14  15  16  17  18  19  20  21  22
 ............................................................................................
   1   -1  -1  -1  -1  -1  -1  -1  -1  -1  -1  -1  -1  -1  -1  -1  -1  -1  -1  -1  -1  -1  -1
   2   -1   1   1   1   1   1   1   1   1   1   1   1   1   1   1   1   1   1   1   1   1  -1
   3   -1   1   1   1   1   1   1   1   1   1   1   1   1   1   1   1   1   1   1   1   1  -1
   4   -1   1   1   1   1   1   1   1   1   1   1   1   1   1   1   1   1   1   1   1   1  -1
   5   -1   1   1   1   1   1   1   1   1   1   1   1   1   1   1   1   1   1   1   1   1  -1
   6   -1   1   1   1   1   1   1   1   1   1   1   1   1   1   1   1   1   1   1   1   1  -1
   7   -1   1   1   1   0   0   0   1   0   0   0   0   0   1   1   1   1   1   1   1   1  -1
   8   -1   1   1   1   0   0   0   1   0   0   0   0   0   1   0   0   1   0   0   1   1  -1
   9   -1   1   1   1   0   0   0   0   0   0   0   0   0   0   0   0   0   0   0   1   1  -1
  10   -1   1   1   1   0   0   0   1   0   0   0   0   0   1   0   0   1   0   0   1   1  -1
  11   -1   1   1   1   0   0   0   1   0   0   0   0   0   1   1   1   1   1   1   1   1  -1
  12   -1   1   1   1   1   1   1   1   1   1   1   1   1   1   1   1   1   1   1   1   1  -1
  13   -1   1   1   1   1   1   1   1   1   1   1   1   1   1   1   1   1   1   1   1   1  -1
  14   -1   1   1   1   1   1   1   1   1   1   1   1   1   1   1   1   1   1   1   1   1  -1
  15   -1   1   1   1   1   1   1   1   1   1   1   1   1   1   1   1   1   1   1   1   1  -1
  16   -1   1   1   1   1   1   1   1   1   1   1   1   1   1   1   1   1   1   1   1   1  -1
  17   -1  -1  -1  -1  -1  -1  -1  -1  -1  -1  -1  -1  -1  -1  -1  -1  -1  -1  -1  -1  -1  -1



                     BOUNDARY ARRAY FOR LAYER   2
 READING ON UNIT    7 WITH FORMAT: (24I3)              

        1   2   3   4   5   6   7   8   9  10  11  12  13  14  15  16  17  18  19  20  21  22
 ............................................................................................
   1   -1  -1  -1  -1  -1  -1  -1  -1  -1  -1  -1  -1  -1  -1  -1  -1  -1  -1  -1  -1  -1  -1
   2   -1   1   1   1   1   1   1   1   1   1   1   1   1   1   1   1   1   1   1   1   1  -1
   3   -1   1   1   1   1   1   1   1   1   1   1   1   1   1   1   1   1   1   1   1   1  -1
   4   -1   1   1   1   1   1   1   1   1   1   1   1   1   1   1   1   1   1   1   1   1  -1
   5   -1   1   1   1   1   1   1   1   1   1   1   1   1   1   1   1   1   1   1   1   1  -1
   6   -1   1   1   1   1   1   1   1   1   1   1   1   1   1   1   1   1   1   1   1   1  -1
   7   -1   1   1   1   1   1   1   1   1   1   1   1   1   1   1   1   1   1   1   1   1  -1
   8   -1   1   1   1   1   0   1   1   1   0   0   0   1   1   0   0   1   0   0   1   1  -1
   9   -1   1   1   1   1   0   0   1   0   0   0   0   0   1   0   0   1   0   0   1   1  -1
  10   -1   1   1   1   1   0   1   1   1   0   0   0   1   1   1   1   1   1   1   1   1  -1
  11   -1   1   1   1   1   1   1   1   1   1   1   1   1   1   1   1   1   1   1   1   1  -1
  12   -1   1   1   1   1   1   1   1   1   1   1   1   1   1   1   1   1   1   1   1   1  -1
  13   -1   1   1   1   1   1   1   1   1   1   1   1   1   1   1   1   1   1   1   1   1  -1
  14   -1   1   1   1   1   1   1   1   1   1   1   1   1   1   1   1   1   1   1   1   1  -1
  15   -1   1   1   1   1   1   1   1   1   1   1   1   1   1   1   1   1   1   1   1   1  -1
  16   -1   1   1   1   1   1   1   1   1   1   1   1   1   1   1   1   1   1   1   1   1  -1
  17   -1  -1  -1  -1  -1  -1  -1  -1  -1  -1  -1  -1  -1  -1  -1  -1  -1  -1  -1  -1  -1  -1



                     BOUNDARY ARRAY FOR LAYER   3
 READING ON UNIT    7 WITH FORMAT: (24I3)              

        1   2   3   4   5   6   7   8   9  10  11  12  13  14  15  16  17  18  19  20  21  22
 ............................................................................................
   1   -1  -1  -1  -1  -1  -1  -1  -1  -1  -1  -1  -1  -1  -1  -1  -1  -1  -1  -1  -1  -1  -1
   2   -1   1   1   1   1   1   1   1   1   1   1   1   1   1   1   1   1   1   1   1   1  -1
   3   -1   1   1   1   1   1   1   1   1   1   1   1   1   1   1   1   1   1   1   1   1  -1
   4   -1   1   1   1   1   1   1   1   1   1   1   1   1   1   1   1   1   1   1   1   1  -1
   5   -1   1   1   1   1   1   1   1   1   1   1   1   1   1   1   1   1   1   1   1   1  -1
   6   -1   1   1   1   1   1   1   1   1   1   1   1   1   1   1   1   1   1   1   1   1  -1
   7   -1   1   1   1   1   1   1   1   1   1   1   1   1   1   1   1   1   1   1   1   1  -1
   8   -1   1   1   1   1   1   1   1   1   1   1   1   1   1   1   1   1   1   1   1   1  -1
   9   -1   1   1   1   1   1   1   1   1   1   1   1   1   1   1   1   1   1   1   1   1  -1
  10   -1   1   1   1   1   1   1   1   1   1   1   1   1   1   1   1   1   1   1   1   1  -1
  11   -1   1   1   1   1   1   1   1   1   1   1   1   1   1   1   1   1   1   1   1   1  -1
  12   -1   1   1   1   1   1   1   1   1   1   1   1   1   1   1   1   1   1   1   1   1  -1
  13   -1   1   1   1   1   1   1   1   1   1   1   1   1   1   1   1   1   1   1   1   1  -1
  14   -1   1   1   1   1   1   1   1   1   1   1   1   1   1   1   1   1   1   1   1   1  -1
  15   -1   1   1   1   1   1   1   1   1   1   1   1   1   1   1   1   1   1   1   1   1  -1
  16   -1   1   1   1   1   1   1   1   1   1   1   1   1   1   1   1   1   1   1   1   1  -1
  17   -1  -1  -1  -1  -1  -1  -1  -1  -1  -1  -1  -1  -1  -1  -1  -1  -1  -1  -1  -1  -1  -1



                     BOUNDARY ARRAY FOR LAYER   4
 READING ON UNIT    7 WITH FORMAT: (24I3)              

        1   2   3   4   5   6   7   8   9  10  11  12  13  14  15  16  17  18  19  20  21  22
 ............................................................................................
   1   -1  -1  -1  -1  -1  -1  -1  -1  -1  -1  -1  -1  -1  -1  -1  -1  -1  -1  -1  -1  -1  -1
   2   -1   1   1   1   1   1   1   1   1   1   1   1   1   1   1   1   1   1   1   1   1  -1
   3   -1   1   1   1   1   1   1   1   1   1   1   1   1   1   1   1   1   1   1   1   1  -1
   4   -1   1   1   1   1   1   1   1   1   1   1   1   1   1   1   1   1   1   1   1   1  -1
   5   -1   1   1   1   1   1   1   1   1   1   1   1   1   1   1   1   1   1   1   1   1  -1
   6   -1   1   1   1   1   1   1   1   1   1   1   1   1   1   1   1   1   1   1   1   1  -1
   7   -1   1   1   1   1   1   1   1   1   1   1   1   1   1   1   1   1   1   1   1   1  -1
   8   -1   1   1   1   1   1   1   1   1   1   1   1   1   1   1   1   1   1   1   1   1  -1
   9   -1   1   1   1   1   1   1   1   1   1   1   1   1   1   1   1   1   1   1   1   1  -1
  10   -1   1   1   1   1   1   1   1   1   1   1   1   1   1   1   1   1   1   1   1   1  -1
  11   -1   1   1   1   1   1   1   1   1   1   1   1   1   1   1   1   1   1   1   1   1  -1
  12   -1   1   1   1   1   1   1   1   1   1   1   1   1   1   1   1   1   1   1   1   1  -1
  13   -1   1   1   1   1   1   1   1   1   1   1   1   1   1   1   1   1   1   1   1   1  -1
  14   -1   1   1   1   1   1   1   1   1   1   1   1   1   1   1   1   1   1   1   1   1  -1
  15   -1   1   1   1   1   1   1   1   1   1   1   1   1   1   1   1   1   1   1   1   1  -1
  16   -1   1   1   1   1   1   1   1   1   1   1   1   1   1   1   1   1   1   1   1   1  -1
  17   -1  -1  -1  -1  -1  -1  -1  -1  -1  -1  -1  -1  -1  -1  -1  -1  -1  -1  -1  -1  -1  -1



                     BOUNDARY ARRAY FOR LAYER   5
 READING ON UNIT    7 WITH FORMAT: (24I3)              

        1   2   3   4   5   6   7   8   9  10  11  12  13  14  15  16  17  18  19  20  21  22
 ............................................................................................
   1   -1  -1  -1  -1  -1  -1  -1  -1  -1  -1  -1  -1  -1  -1  -1  -1  -1  -1  -1  -1  -1  -1
   2   -1   1   1   1   1   1   1   1   1   1   1   1   1   1   1   1   1   1   1   1   1  -1
   3   -1   1   1   1   1   1   1   1   1   1   1   1   1   1   1   1   1   1   1   1   1  -1
   4   -1   1   1   1   1   1   1   1   1   1   1   1   1   1   1   1   1   1   1   1   1  -1
   5   -1   1   1   1   1   1   1   1   1   1   1   1   1   1   1   1   1   1   1   1   1  -1
   6   -1   1   1   1   1   1   1   1   1   1   1   1   1   1   1   1   1   1   1   1   1  -1
   7   -1   1   1   1   1   1   1   1   1   1   1   1   1   1   1   1   1   1   1   1   1  -1
   8   -1   1   1   1   1   1   1   1   1   1   1   1   1   1   1   1   1   1   1   1   1  -1
   9   -1   1   1   1   1   1   1   1   1   1   1   1   1   1   1   1   1   1   1   1   1  -1
  10   -1   1   1   1   1   1   1   1   1   1   1   1   1   1   1   1   1   1   1   1   1  -1
  11   -1   1   1   1   1   1   1   1   1   1   1   1   1   1   1   1   1   1   1   1   1  -1
  12   -1   1   1   1   1   1   1   1   1   1   1   1   1   1   1   1   1   1   1   1   1  -1
  13   -1   1   1   1   1   1   1   1   1   1   1   1   1   1   1   1   1   1   1   1   1  -1
  14   -1   1   1   1   1   1   1   1   1   1   1   1   1   1   1   1   1   1   1   1   1  -1
  15   -1   1   1   1   1   1   1   1   1   1   1   1   1   1   1   1   1   1   1   1   1  -1
  16   -1   1   1   1   1   1   1   1   1   1   1   1   1   1   1   1   1   1   1   1   1  -1
  17   -1  -1  -1  -1  -1  -1  -1  -1  -1  -1  -1  -1  -1  -1  -1  -1  -1  -1  -1  -1  -1  -1

 AQUIFER HEAD WILL BE SET TO -999.00     AT ALL NO-FLOW NODES (IBOUND=0).

             INITIAL HEAD =   115.000     FOR LAYER   1

             INITIAL HEAD =   115.000     FOR LAYER   2

             INITIAL HEAD =   115.000     FOR LAYER   3

             INITIAL HEAD =   115.000     FOR LAYER   4

             INITIAL HEAD =   115.000     FOR LAYER   5

 OUTPUT CONTROL IS SPECIFIED EVERY TIME STEP
 HEAD PRINT FORMAT CODE IS -14    DRAWDOWN PRINT FORMAT CODE IS   9
 HEADS WILL BE SAVED ON UNIT   18    DRAWDOWNS WILL BE SAVED ON UNIT   19

 COLUMN TO ROW ANISOTROPY =   1.00000    

     PRIMARY STORAGE COEF =  0.200000     FOR LAYER   1

    HYD. COND. ALONG ROWS =   30.0000     FOR LAYER   1

 VERT HYD COND /THICKNESS =   3.00000     FOR LAYER   1



                   WETDRY PARAMETER FOR LAYER   1
 READING ON UNIT   10 WITH FORMAT: (24F3.0)            

         1     2     3     4     5     6     7     8     9    10    11    12    13    14    15    16    17    18    19    20
        21    22
 ...........................................................................................................................
   1    0.2   0.2   0.2   0.2   0.2   0.2   0.2   0.2   0.2   0.2   0.2   0.2   0.2   0.2   0.2   0.2   0.2   0.2   0.2   0.2
        0.2   0.2
   2    0.2  -0.2  -0.2  -0.2  -0.2  -0.2  -0.2  -0.2  -0.2  -0.2  -0.2  -0.2  -0.2  -0.2  -0.2  -0.2  -0.2  -0.2  -0.2  -0.2
       -0.2   0.2
   3    0.2  -0.2  -0.2  -0.2  -0.2  -0.2  -0.2  -0.2  -0.2  -0.2  -0.2  -0.2  -0.2  -0.2  -0.2  -0.2  -0.2  -0.2  -0.2  -0.2
       -0.2   0.2
   4    0.2  -0.2  -0.2  -0.2  -0.2  -0.2  -0.2  -0.2  -0.2  -0.2  -0.2  -0.2  -0.2  -0.2  -0.2  -0.2  -0.2  -0.2  -0.2  -0.2
       -0.2   0.2
   5    0.2  -0.2  -0.2  -0.2  -0.2  -0.2  -0.2  -0.2  -0.2  -0.2  -0.2  -0.2  -0.2  -0.2  -0.2  -0.2  -0.2  -0.2  -0.2  -0.2
       -0.2   0.2
   6    0.2  -0.2  -0.2  -0.2  -0.2  -0.2  -0.2  -0.2  -0.2  -0.2  -0.2  -0.2  -0.2  -0.2  -0.2  -0.2  -0.2  -0.2  -0.2  -0.2
       -0.2   0.2
   7    0.2  -0.2  -0.2  -0.2   0.0   0.0   0.0  -0.2   0.0   0.0   0.0   0.0   0.0  -0.2  -0.2  -0.2  -0.2  -0.2  -0.2  -0.2
       -0.2   0.2
   8    0.2  -0.2  -0.2  -0.2   0.0   0.0   0.0  -0.2   0.0   0.0   0.0   0.0   0.0  -0.2   0.0   0.0  -0.2   0.0   0.0  -0.2
       -0.2   0.2
   9    0.2  -0.2  -0.2  -0.2   0.0   0.0   0.0   0.0   0.0   0.0   0.0   0.0   0.0   0.0   0.0   0.0   0.0   0.0   0.0  -0.2
       -0.2   0.2
  10    0.2  -0.2  -0.2  -0.2   0.0   0.0   0.0  -0.2   0.0   0.0   0.0   0.0   0.0  -0.2   0.0   0.0  -0.2   0.0   0.0  -0.2
       -0.2   0.2
  11    0.2  -0.2  -0.2  -0.2   0.0   0.0   0.0  -0.2   0.0   0.0   0.0   0.0   0.0  -0.2  -0.2  -0.2  -0.2  -0.2  -0.2  -0.2
       -0.2   0.2
  12    0.2  -0.2  -0.2  -0.2  -0.2  -0.2  -0.2  -0.2  -0.2  -0.2  -0.2  -0.2  -0.2  -0.2  -0.2  -0.2  -0.2  -0.2  -0.2  -0.2
       -0.2   0.2
  13    0.2  -0.2  -0.2  -0.2  -0.2  -0.2  -0.2  -0.2  -0.2  -0.2  -0.2  -0.2  -0.2  -0.2  -0.2  -0.2  -0.2  -0.2  -0.2  -0.2
       -0.2   0.2
  14    0.2  -0.2  -0.2  -0.2  -0.2  -0.2  -0.2  -0.2  -0.2  -0.2  -0.2  -0.2  -0.2  -0.2  -0.2  -0.2  -0.2  -0.2  -0.2  -0.2
       -0.2   0.2
  15    0.2  -0.2  -0.2  -0.2  -0.2  -0.2  -0.2  -0.2  -0.2  -0.2  -0.2  -0.2  -0.2  -0.2  -0.2  -0.2  -0.2  -0.2  -0.2  -0.2
       -0.2   0.2
  16    0.2  -0.2  -0.2  -0.2  -0.2  -0.2  -0.2  -0.2  -0.2  -0.2  -0.2  -0.2  -0.2  -0.2  -0.2  -0.2  -0.2  -0.2  -0.2  -0.2
       -0.2   0.2
  17    0.2   0.2   0.2   0.2   0.2   0.2   0.2   0.2   0.2   0.2   0.2   0.2   0.2   0.2   0.2   0.2   0.2   0.2   0.2   0.2
        0.2   0.2

     PRIMARY STORAGE COEF =  3.000000E-04 FOR LAYER   2

    HYD. COND. ALONG ROWS =   30.0000     FOR LAYER   2

 VERT HYD COND /THICKNESS =   3.00000     FOR LAYER   2

   SECONDARY STORAGE COEF =  0.200000     FOR LAYER   2



                   WETDRY PARAMETER FOR LAYER   2
 READING ON UNIT   10 WITH FORMAT: (24F3.0)            

         1     2     3     4     5     6     7     8     9    10    11    12    13    14    15    16    17    18    19    20
        21    22
 ...........................................................................................................................
   1    0.2   0.2   0.2   0.2   0.2   0.2   0.2   0.2   0.2   0.2   0.2   0.2   0.2   0.2   0.2   0.2   0.2   0.2   0.2   0.2
        0.2   0.2
   2    0.2  -0.2  -0.2  -0.2  -0.2  -0.2  -0.2  -0.2  -0.2  -0.2  -0.2  -0.2  -0.2  -0.2  -0.2  -0.2  -0.2  -0.2  -0.2  -0.2
       -0.2   0.2
   3    0.2  -0.2  -0.2  -0.2  -0.2  -0.2  -0.2  -0.2  -0.2  -0.2  -0.2  -0.2  -0.2  -0.2  -0.2  -0.2  -0.2  -0.2  -0.2  -0.2
       -0.2   0.2
   4    0.2  -0.2  -0.2  -0.2  -0.2  -0.2  -0.2  -0.2  -0.2  -0.2  -0.2  -0.2  -0.2  -0.2  -0.2  -0.2  -0.2  -0.2  -0.2  -0.2
       -0.2   0.2
   5    0.2  -0.2  -0.2  -0.2  -0.2  -0.2  -0.2  -0.2  -0.2  -0.2  -0.2  -0.2  -0.2  -0.2  -0.2  -0.2  -0.2  -0.2  -0.2  -0.2
       -0.2   0.2
   6    0.2  -0.2  -0.2  -0.2  -0.2  -0.2  -0.2  -0.2  -0.2  -0.2  -0.2  -0.2  -0.2  -0.2  -0.2  -0.2  -0.2  -0.2  -0.2  -0.2
       -0.2   0.2
   7    0.2  -0.2  -0.2  -0.2  -0.2  -0.2  -0.2  -0.2  -0.2  -0.2  -0.2  -0.2  -0.2  -0.2  -0.2  -0.2  -0.2  -0.2  -0.2  -0.2
       -0.2   0.2
   8    0.2  -0.2  -0.2  -0.2  -0.2   0.0  -0.2  -0.2  -0.2   0.0   0.0   0.0  -0.2  -0.2   0.0   0.0  -0.2   0.0   0.0  -0.2
       -0.2   0.2
   9    0.2  -0.2  -0.2  -0.2  -0.2   0.0   0.0  -0.2   0.0   0.0   0.0   0.0   0.0  -0.2   0.0   0.0  -0.2   0.0   0.0  -0.2
       -0.2   0.2
  10    0.2  -0.2  -0.2  -0.2  -0.2   0.0  -0.2  -0.2  -0.2   0.0   0.0   0.0  -0.2  -0.2  -0.2  -0.2  -0.2  -0.2  -0.2  -0.2
       -0.2   0.2
  11    0.2  -0.2  -0.2  -0.2  -0.2  -0.2  -0.2  -0.2  -0.2  -0.2  -0.2  -0.2  -0.2  -0.2  -0.2  -0.2  -0.2  -0.2  -0.2  -0.2
       -0.2   0.2
  12    0.2  -0.2  -0.2  -0.2  -0.2  -0.2  -0.2  -0.2  -0.2  -0.2  -0.2  -0.2  -0.2  -0.2  -0.2  -0.2  -0.2  -0.2  -0.2  -0.2
       -0.2   0.2
  13    0.2  -0.2  -0.2  -0.2  -0.2  -0.2  -0.2  -0.2  -0.2  -0.2  -0.2  -0.2  -0.2  -0.2  -0.2  -0.2  -0.2  -0.2  -0.2  -0.2
       -0.2   0.2
  14    0.2  -0.2  -0.2  -0.2  -0.2  -0.2  -0.2  -0.2  -0.2  -0.2  -0.2  -0.2  -0.2  -0.2  -0.2  -0.2  -0.2  -0.2  -0.2  -0.2
       -0.2   0.2
  15    0.2  -0.2  -0.2  -0.2  -0.2  -0.2  -0.2  -0.2  -0.2  -0.2  -0.2  -0.2  -0.2  -0.2  -0.2  -0.2  -0.2  -0.2  -0.2  -0.2
       -0.2   0.2
  16    0.2  -0.2  -0.2  -0.2  -0.2  -0.2  -0.2  -0.2  -0.2  -0.2  -0.2  -0.2  -0.2  -0.2  -0.2  -0.2  -0.2  -0.2  -0.2  -0.2
       -0.2   0.2
  17    0.2   0.2   0.2   0.2   0.2   0.2   0.2   0.2   0.2   0.2   0.2   0.2   0.2   0.2   0.2   0.2   0.2   0.2   0.2   0.2
        0.2   0.2

     PRIMARY STORAGE COEF =  3.000000E-04 FOR LAYER   3

    HYD. COND. ALONG ROWS =   30.0000     FOR LAYER   3

 VERT HYD COND /THICKNESS =   3.00000     FOR LAYER   3

   SECONDARY STORAGE COEF =  0.200000     FOR LAYER   3



                   WETDRY PARAMETER FOR LAYER   3
 READING ON UNIT   10 WITH FORMAT: (24F3.0)            

         1     2     3     4     5     6     7     8     9    10    11    12    13    14    15    16    17    18    19    20
        21    22
 ...........................................................................................................................
   1    0.2   0.2   0.2   0.2   0.2   0.2   0.2   0.2   0.2   0.2   0.2   0.2   0.2   0.2   0.2   0.2   0.2   0.2   0.2   0.2
        0.2   0.2
   2    0.2  -0.2  -0.2  -0.2  -0.2  -0.2  -0.2  -0.2  -0.2  -0.2  -0.2  -0.2  -0.2  -0.2  -0.2  -0.2  -0.2  -0.2  -0.2  -0.2
       -0.2   0.2
   3    0.2  -0.2  -0.2  -0.2  -0.2  -0.2  -0.2  -0.2  -0.2  -0.2  -0.2  -0.2  -0.2  -0.2  -0.2  -0.2  -0.2  -0.2  -0.2  -0.2
       -0.2   0.2
   4    0.2  -0.2  -0.2  -0.2  -0.2  -0.2  -0.2  -0.2  -0.2  -0.2  -0.2  -0.2  -0.2  -0.2  -0.2  -0.2  -0.2  -0.2  -0.2  -0.2
       -0.2   0.2
   5    0.2  -0.2  -0.2  -0.2  -0.2  -0.2  -0.2  -0.2  -0.2  -0.2  -0.2  -0.2  -0.2  -0.2  -0.2  -0.2  -0.2  -0.2  -0.2  -0.2
       -0.2   0.2
   6    0.2  -0.2  -0.2  -0.2  -0.2  -0.2  -0.2  -0.2  -0.2  -0.2  -0.2  -0.2  -0.2  -0.2  -0.2  -0.2  -0.2  -0.2  -0.2  -0.2
       -0.2   0.2
   7    0.2  -0.2  -0.2  -0.2  -0.2  -0.2  -0.2  -0.2  -0.2  -0.2  -0.2  -0.2  -0.2  -0.2  -0.2  -0.2  -0.2  -0.2  -0.2  -0.2
       -0.2   0.2
   8    0.2  -0.2  -0.2  -0.2  -0.2  -0.2  -0.2  -0.2  -0.2  -0.2  -0.2  -0.2  -0.2  -0.2  -0.2  -0.2  -0.2  -0.2  -0.2  -0.2
       -0.2   0.2
   9    0.2  -0.2  -0.2  -0.2  -0.2  -0.2  -0.2  -0.2  -0.2  -0.2  -0.2  -0.2  -0.2  -0.2  -0.2  -0.2  -0.2  -0.2  -0.2  -0.2
       -0.2   0.2
  10    0.2  -0.2  -0.2  -0.2  -0.2  -0.2  -0.2  -0.2  -0.2  -0.2  -0.2  -0.2  -0.2  -0.2  -0.2  -0.2  -0.2  -0.2  -0.2  -0.2
       -0.2   0.2
  11    0.2  -0.2  -0.2  -0.2  -0.2  -0.2  -0.2  -0.2  -0.2  -0.2  -0.2  -0.2  -0.2  -0.2  -0.2  -0.2  -0.2  -0.2  -0.2  -0.2
       -0.2   0.2
  12    0.2  -0.2  -0.2  -0.2  -0.2  -0.2  -0.2  -0.2  -0.2  -0.2  -0.2  -0.2  -0.2  -0.2  -0.2  -0.2  -0.2  -0.2  -0.2  -0.2
       -0.2   0.2
  13    0.2  -0.2  -0.2  -0.2  -0.2  -0.2  -0.2  -0.2  -0.2  -0.2  -0.2  -0.2  -0.2  -0.2  -0.2  -0.2  -0.2  -0.2  -0.2  -0.2
       -0.2   0.2
  14    0.2  -0.2  -0.2  -0.2  -0.2  -0.2  -0.2  -0.2  -0.2  -0.2  -0.2  -0.2  -0.2  -0.2  -0.2  -0.2  -0.2  -0.2  -0.2  -0.2
       -0.2   0.2
  15    0.2  -0.2  -0.2  -0.2  -0.2  -0.2  -0.2  -0.2  -0.2  -0.2  -0.2  -0.2  -0.2  -0.2  -0.2  -0.2  -0.2  -0.2  -0.2  -0.2
       -0.2   0.2
  16    0.2  -0.2  -0.2  -0.2  -0.2  -0.2  -0.2  -0.2  -0.2  -0.2  -0.2  -0.2  -0.2  -0.2  -0.2  -0.2  -0.2  -0.2  -0.2  -0.2
       -0.2   0.2
  17    0.2   0.2   0.2   0.2   0.2   0.2   0.2   0.2   0.2   0.2   0.2   0.2   0.2   0.2   0.2   0.2   0.2   0.2   0.2   0.2
        0.2   0.2

     PRIMARY STORAGE COEF =  3.000000E-04 FOR LAYER   4

    HYD. COND. ALONG ROWS =   30.0000     FOR LAYER   4

 VERT HYD COND /THICKNESS =   3.00000     FOR LAYER   4

   SECONDARY STORAGE COEF =  0.200000     FOR LAYER   4



                   WETDRY PARAMETER FOR LAYER   4
 READING ON UNIT   10 WITH FORMAT: (24F3.0)            

         1     2     3     4     5     6     7     8     9    10    11    12    13    14    15    16    17    18    19    20
        21    22
 ...........................................................................................................................
   1    0.2   0.2   0.2   0.2   0.2   0.2   0.2   0.2   0.2   0.2   0.2   0.2   0.2   0.2   0.2   0.2   0.2   0.2   0.2   0.2
        0.2   0.2
   2    0.2  -0.2  -0.2  -0.2  -0.2  -0.2  -0.2  -0.2  -0.2  -0.2  -0.2  -0.2  -0.2  -0.2  -0.2  -0.2  -0.2  -0.2  -0.2  -0.2
       -0.2   0.2
   3    0.2  -0.2  -0.2  -0.2  -0.2  -0.2  -0.2  -0.2  -0.2  -0.2  -0.2  -0.2  -0.2  -0.2  -0.2  -0.2  -0.2  -0.2  -0.2  -0.2
       -0.2   0.2
   4    0.2  -0.2  -0.2  -0.2  -0.2  -0.2  -0.2  -0.2  -0.2  -0.2  -0.2  -0.2  -0.2  -0.2  -0.2  -0.2  -0.2  -0.2  -0.2  -0.2
       -0.2   0.2
   5    0.2  -0.2  -0.2  -0.2  -0.2  -0.2  -0.2  -0.2  -0.2  -0.2  -0.2  -0.2  -0.2  -0.2  -0.2  -0.2  -0.2  -0.2  -0.2  -0.2
       -0.2   0.2
   6    0.2  -0.2  -0.2  -0.2  -0.2  -0.2  -0.2  -0.2  -0.2  -0.2  -0.2  -0.2  -0.2  -0.2  -0.2  -0.2  -0.2  -0.2  -0.2  -0.2
       -0.2   0.2
   7    0.2  -0.2  -0.2  -0.2  -0.2  -0.2  -0.2  -0.2  -0.2  -0.2  -0.2  -0.2  -0.2  -0.2  -0.2  -0.2  -0.2  -0.2  -0.2  -0.2
       -0.2   0.2
   8    0.2  -0.2  -0.2  -0.2  -0.2  -0.2  -0.2  -0.2  -0.2  -0.2  -0.2  -0.2  -0.2  -0.2  -0.2  -0.2  -0.2  -0.2  -0.2  -0.2
       -0.2   0.2
   9    0.2  -0.2  -0.2  -0.2  -0.2  -0.2  -0.2  -0.2  -0.2  -0.2  -0.2  -0.2  -0.2  -0.2  -0.2  -0.2  -0.2  -0.2  -0.2  -0.2
       -0.2   0.2
  10    0.2  -0.2  -0.2  -0.2  -0.2  -0.2  -0.2  -0.2  -0.2  -0.2  -0.2  -0.2  -0.2  -0.2  -0.2  -0.2  -0.2  -0.2  -0.2  -0.2
       -0.2   0.2
  11    0.2  -0.2  -0.2  -0.2  -0.2  -0.2  -0.2  -0.2  -0.2  -0.2  -0.2  -0.2  -0.2  -0.2  -0.2  -0.2  -0.2  -0.2  -0.2  -0.2
       -0.2   0.2
  12    0.2  -0.2  -0.2  -0.2  -0.2  -0.2  -0.2  -0.2  -0.2  -0.2  -0.2  -0.2  -0.2  -0.2  -0.2  -0.2  -0.2  -0.2  -0.2  -0.2
       -0.2   0.2
  13    0.2  -0.2  -0.2  -0.2  -0.2  -0.2  -0.2  -0.2  -0.2  -0.2  -0.2  -0.2  -0.2  -0.2  -0.2  -0.2  -0.2  -0.2  -0.2  -0.2
       -0.2   0.2
  14    0.2  -0.2  -0.2  -0.2  -0.2  -0.2  -0.2  -0.2  -0.2  -0.2  -0.2  -0.2  -0.2  -0.2  -0.2  -0.2  -0.2  -0.2  -0.2  -0.2
       -0.2   0.2
  15    0.2  -0.2  -0.2  -0.2  -0.2  -0.2  -0.2  -0.2  -0.2  -0.2  -0.2  -0.2  -0.2  -0.2  -0.2  -0.2  -0.2  -0.2  -0.2  -0.2
       -0.2   0.2
  16    0.2  -0.2  -0.2  -0.2  -0.2  -0.2  -0.2  -0.2  -0.2  -0.2  -0.2  -0.2  -0.2  -0.2  -0.2  -0.2  -0.2  -0.2  -0.2  -0.2
       -0.2   0.2
  17    0.2   0.2   0.2   0.2   0.2   0.2   0.2   0.2   0.2   0.2   0.2   0.2   0.2   0.2   0.2   0.2   0.2   0.2   0.2   0.2
        0.2   0.2

     PRIMARY STORAGE COEF =  3.000000E-04 FOR LAYER   5

    HYD. COND. ALONG ROWS =   30.0000     FOR LAYER   5

   SECONDARY STORAGE COEF =  0.200000     FOR LAYER   5



                   WETDRY PARAMETER FOR LAYER   5
 READING ON UNIT   10 WITH FORMAT: (24F3.0)            

         1     2     3     4     5     6     7     8     9    10    11    12    13    14    15    16    17    18    19    20
        21    22
 ...........................................................................................................................
   1    0.2   0.2   0.2   0.2   0.2   0.2   0.2   0.2   0.2   0.2   0.2   0.2   0.2   0.2   0.2   0.2   0.2   0.2   0.2   0.2
        0.2   0.2
   2    0.2  -0.2  -0.2  -0.2  -0.2  -0.2  -0.2  -0.2  -0.2  -0.2  -0.2  -0.2  -0.2  -0.2  -0.2  -0.2  -0.2  -0.2  -0.2  -0.2
       -0.2   0.2
   3    0.2  -0.2  -0.2  -0.2  -0.2  -0.2  -0.2  -0.2  -0.2  -0.2  -0.2  -0.2  -0.2  -0.2  -0.2  -0.2  -0.2  -0.2  -0.2  -0.2
       -0.2   0.2
   4    0.2  -0.2  -0.2  -0.2  -0.2  -0.2  -0.2  -0.2  -0.2  -0.2  -0.2  -0.2  -0.2  -0.2  -0.2  -0.2  -0.2  -0.2  -0.2  -0.2
       -0.2   0.2
   5    0.2  -0.2  -0.2  -0.2  -0.2  -0.2  -0.2  -0.2  -0.2  -0.2  -0.2  -0.2  -0.2  -0.2  -0.2  -0.2  -0.2  -0.2  -0.2  -0.2
       -0.2   0.2
   6    0.2  -0.2  -0.2  -0.2  -0.2  -0.2  -0.2  -0.2  -0.2  -0.2  -0.2  -0.2  -0.2  -0.2  -0.2  -0.2  -0.2  -0.2  -0.2  -0.2
       -0.2   0.2
   7    0.2  -0.2  -0.2  -0.2  -0.2  -0.2  -0.2  -0.2  -0.2  -0.2  -0.2  -0.2  -0.2  -0.2  -0.2  -0.2  -0.2  -0.2  -0.2  -0.2
       -0.2   0.2
   8    0.2  -0.2  -0.2  -0.2  -0.2  -0.2  -0.2  -0.2  -0.2  -0.2  -0.2  -0.2  -0.2  -0.2  -0.2  -0.2  -0.2  -0.2  -0.2  -0.2
       -0.2   0.2
   9    0.2  -0.2  -0.2  -0.2  -0.2  -0.2  -0.2  -0.2  -0.2  -0.2  -0.2  -0.2  -0.2  -0.2  -0.2  -0.2  -0.2  -0.2  -0.2  -0.2
       -0.2   0.2
  10    0.2  -0.2  -0.2  -0.2  -0.2  -0.2  -0.2  -0.2  -0.2  -0.2  -0.2  -0.2  -0.2  -0.2  -0.2  -0.2  -0.2  -0.2  -0.2  -0.2
       -0.2   0.2
  11    0.2  -0.2  -0.2  -0.2  -0.2  -0.2  -0.2  -0.2  -0.2  -0.2  -0.2  -0.2  -0.2  -0.2  -0.2  -0.2  -0.2  -0.2  -0.2  -0.2
       -0.2   0.2
  12    0.2  -0.2  -0.2  -0.2  -0.2  -0.2  -0.2  -0.2  -0.2  -0.2  -0.2  -0.2  -0.2  -0.2  -0.2  -0.2  -0.2  -0.2  -0.2  -0.2
       -0.2   0.2
  13    0.2  -0.2  -0.2  -0.2  -0.2  -0.2  -0.2  -0.2  -0.2  -0.2  -0.2  -0.2  -0.2  -0.2  -0.2  -0.2  -0.2  -0.2  -0.2  -0.2
       -0.2   0.2
  14    0.2  -0.2  -0.2  -0.2  -0.2  -0.2  -0.2  -0.2  -0.2  -0.2  -0.2  -0.2  -0.2  -0.2  -0.2  -0.2  -0.2  -0.2  -0.2  -0.2
       -0.2   0.2
  15    0.2  -0.2  -0.2  -0.2  -0.2  -0.2  -0.2  -0.2  -0.2  -0.2  -0.2  -0.2  -0.2  -0.2  -0.2  -0.2  -0.2  -0.2  -0.2  -0.2
       -0.2   0.2
  16    0.2  -0.2  -0.2  -0.2  -0.2  -0.2  -0.2  -0.2  -0.2  -0.2  -0.2  -0.2  -0.2  -0.2  -0.2  -0.2  -0.2  -0.2  -0.2  -0.2
       -0.2   0.2
  17    0.2   0.2   0.2   0.2   0.2   0.2   0.2   0.2   0.2   0.2   0.2   0.2   0.2   0.2   0.2   0.2   0.2   0.2   0.2   0.2
        0.2   0.2


     0 Evapotranspiration parameters


     0 Recharge parameters
 TIMES FOR SPECIFIED-FLOW AND HEAD VALUES WILL BE READ ON UNIT  21 AND
 MULTIPLIED BY   1.000    .
     1 TIMES FOR SPECIFYING FLOWS AND HEADS:
                       1
                 ------------
                    0.000    

 CELL INDICIES AND SPECIFIED-HEAD VALUES WILL BE READ ON UNIT  21. HEAD VALUES
 WILL BE MULTIPLIED BY   1.000    .
 LAYER  ROW  COL IAUX             HEAD VALUES
 -------------------------------
    1    1    1   64   160.0    
    1    2    1   64   160.0    
    1    3    1   64   160.0    
    1    4    1   64   160.0    
    1    5    1   64   160.0    
    1    6    1   64   160.0    
    1    7    1   64   160.0    
    1    8    1   64   160.0    
    1    9    1   64   160.0    
    1   10    1   64   160.0    
    1   11    1   64   160.0    
    1   12    1   64   160.0    
    1   13    1   64   160.0    
    1   14    1   64   160.0    
    1   15    1   64   160.0    
    1   16    1   64   160.0    
    1   17    1   64   160.0    
    1    1   22   64   140.0    
    1    2   22   64   140.0    
    1    3   22   64   140.0    
    1    4   22   64   140.0    
    1    5   22   64   140.0    
    1    6   22   64   140.0    
    1    7   22   64   140.0    
    1    8   22   64   140.0    
    1    9   22   64   140.0    
    1   10   22   64   140.0    
    1   11   22   64   140.0    
    1   12   22   64   140.0    
    1   13   22   64   140.0    
    1   14   22   64   140.0    
    1   15   22   64   140.0    
    1   16   22   64   140.0    
    1   17   22   64   140.0    
    2    1    1   64   160.0    
    2    2    1   64   160.0    
    2    3    1   64   160.0    
    2    4    1   64   160.0    
    2    5    1   64   160.0    
    2    6    1   64   160.0    
    2    7    1   64   160.0    
    2    8    1   64   160.0    
    2    9    1   64   160.0    
    2   10    1   64   160.0    
    2   11    1   64   160.0    
    2   12    1   64   160.0    
    2   13    1   64   160.0    
    2   14    1   64   160.0    
    2   15    1   64   160.0    
    2   16    1   64   160.0    
    2   17    1   64   160.0    
    2    1   22   64   140.0    
    2    2   22   64   140.0    
    2    3   22   64   140.0    
    2    4   22   64   140.0    
    2    5   22   64   140.0    
    2    6   22   64   140.0    
    2    7   22   64   140.0    
    2    8   22   64   140.0    
    2    9   22   64   140.0    
    2   10   22   64   140.0    
    2   11   22   64   140.0    
    2   12   22   64   140.0    
    2   13   22   64   140.0    
    2   14   22   64   140.0    
    2   15   22   64   140.0    
    2   16   22   64   140.0    
    2   17   22   64   140.0    
    3    1    1   64   160.0    
    3    2    1   64   160.0    
    3    3    1   64   160.0    
    3    4    1   64   160.0    
    3    5    1   64   160.0    
    3    6    1   64   160.0    
    3    7    1   64   160.0    
    3    8    1   64   160.0    
    3    9    1   64   160.0    
    3   10    1   64   160.0    
    3   11    1   64   160.0    
    3   12    1   64   160.0    
    3   13    1   64   160.0    
    3   14    1   64   160.0    
    3   15    1   64   160.0    
    3   16    1   64   160.0    
    3   17    1   64   160.0    
    3    1   22   64   140.0    
    3    2   22   64   140.0    
    3    3   22   64   140.0    
    3    4   22   64   140.0    
    3    5   22   64   140.0    
    3    6   22   64   140.0    
    3    7   22   64   140.0    
    3    8   22   64   140.0    
    3    9   22   64   140.0    
    3   10   22   64   140.0    
    3   11   22   64   140.0    
    3   12   22   64   140.0    
    3   13   22   64   140.0    
    3   14   22   64   140.0    
    3   15   22   64   140.0    
    3   16   22   64   140.0    
    3   17   22   64   140.0    
    4    1    1   64   160.0    
    4    2    1   64   160.0    
    4    3    1   64   160.0    
    4    4    1   64   160.0    
    4    5    1   64   160.0    
    4    6    1   64   160.0    
    4    7    1   64   160.0    
    4    8    1   64   160.0    
    4    9    1   64   160.0    
    4   10    1   64   160.0    
    4   11    1   64   160.0    
    4   12    1   64   160.0    
    4   13    1   64   160.0    
    4   14    1   64   160.0    
    4   15    1   64   160.0    
    4   16    1   64   160.0    
    4   17    1   64   160.0    
    4    1   22   64   140.0    
    4    2   22   64   140.0    
    4    3   22   64   140.0    
    4    4   22   64   140.0    
    4    5   22   64   140.0    
    4    6   22   64   140.0    
    4    7   22   64   140.0    
    4    8   22   64   140.0    
    4    9   22   64   140.0    
    4   10   22   64   140.0    
    4   11   22   64   140.0    
    4   12   22   64   140.0    
    4   13   22   64   140.0    
    4   14   22   64   140.0    
    4   15   22   64   140.0    
    4   16   22   64   140.0    
    4   17   22   64   140.0    
    5    1    1   64   160.0    
    5    2    1   64   160.0    
    5    3    1   64   160.0    
    5    4    1   64   160.0    
    5    5    1   64   160.0    
    5    6    1   64   160.0    
    5    7    1   64   160.0    
    5    8    1   64   160.0    
    5    9    1   64   160.0    
    5   10    1   64   160.0    
    5   11    1   64   160.0    
    5   12    1   64   160.0    
    5   13    1   64   160.0    
    5   14    1   64   160.0    
    5   15    1   64   160.0    
    5   16    1   64   160.0    
    5   17    1   64   160.0    
    5    1   22   64   140.0    
    5    2   22   64   140.0    
    5    3   22   64   140.0    
    5    4   22   64   140.0    
    5    5   22   64   140.0    
    5    6   22   64   140.0    
    5    7   22   64   140.0    
    5    8   22   64   140.0    
    5    9   22   64   140.0    
    5   10   22   64   140.0    
    5   11   22   64   140.0    
    5   12   22   64   140.0    
    5   13   22   64   140.0    
    5   14   22   64   140.0    
    5   15   22   64   140.0    
    5   16   22   64   140.0    
    5   17   22   64   140.0    
    1    1    2   64   158.9    
    1    1    3   64   157.3    
    1    1    4   64   155.8    
    1    1    5   64   154.6    
    1    1    6   64   153.9    
    1    1    7   64   153.1    
    1    1    8   64   152.3    
    1    1    9   64   151.5    
    1    1   10   64   150.8    
    1    1   11   64   150.0    
    1    1   12   64   149.2    
    1    1   13   64   148.5    
    1    1   14   64   147.7    
    1    1   15   64   146.9    
    1    1   16   64   146.1    
    1    1   17   64   145.4    
    1    1   18   64   144.6    
    1    1   19   64   143.9    
    1    1   20   64   142.7    
    1    1   21   64   141.1    
    1   17    2   64   158.9    
    1   17    3   64   157.3    
    1   17    4   64   155.8    
    1   17    5   64   154.6    
    1   17    6   64   153.9    
    1   17    7   64   153.1    
    1   17    8   64   152.3    
    1   17    9   64   151.5    
    1   17   10   64   150.8    
    1   17   11   64   150.0    
    1   17   12   64   149.2    
    1   17   13   64   148.5    
    1   17   14   64   147.7    
    1   17   15   64   146.9    
    1   17   16   64   146.1    
    1   17   17   64   145.4    
    1   17   18   64   144.6    
    1   17   19   64   143.9    
    1   17   20   64   142.7    
    1   17   21   64   141.1    
    2    1    2   64   158.9    
    2    1    3   64   157.3    
    2    1    4   64   155.8    
    2    1    5   64   154.6    
    2    1    6   64   153.9    
    2    1    7   64   153.1    
    2    1    8   64   152.3    
    2    1    9   64   151.5    
    2    1   10   64   150.8    
    2    1   11   64   150.0    
    2    1   12   64   149.2    
    2    1   13   64   148.5    
    2    1   14   64   147.7    
    2    1   15   64   146.9    
    2    1   16   64   146.1    
    2    1   17   64   145.4    
    2    1   18   64   144.6    
    2    1   19   64   143.9    
    2    1   20   64   142.7    
    2    1   21   64   141.1    
    2   17    2   64   158.9    
    2   17    3   64   157.3    
    2   17    4   64   155.8    
    2   17    5   64   154.6    
    2   17    6   64   153.9    
    2   17    7   64   153.1    
    2   17    8   64   152.3    
    2   17    9   64   151.5    
    2   17   10   64   150.8    
    2   17   11   64   150.0    
    2   17   12   64   149.2    
    2   17   13   64   148.5    
    2   17   14   64   147.7    
    2   17   15   64   146.9    
    2   17   16   64   146.1    
    2   17   17   64   145.4    
    2   17   18   64   144.6    
    2   17   19   64   143.9    
    2   17   20   64   142.7    
    2   17   21   64   141.1    
    3    1    2   64   158.9    
    3    1    3   64   157.3    
    3    1    4   64   155.8    
    3    1    5   64   154.6    
    3    1    6   64   153.9    
    3    1    7   64   153.1    
    3    1    8   64   152.3    
    3    1    9   64   151.5    
    3    1   10   64   150.8    
    3    1   11   64   150.0    
    3    1   12   64   149.2    
    3    1   13   64   148.5    
    3    1   14   64   147.7    
    3    1   15   64   146.9    
    3    1   16   64   146.1    
    3    1   17   64   145.4    
    3    1   18   64   144.6    
    3    1   19   64   143.9    
    3    1   20   64   142.7    
    3    1   21   64   141.1    
    3   17    2   64   158.9    
    3   17    3   64   157.3    
    3   17    4   64   155.8    
    3   17    5   64   154.6    
    3   17    6   64   153.9    
    3   17    7   64   153.1    
    3   17    8   64   152.3    
    3   17    9   64   151.5    
    3   17   10   64   150.8    
    3   17   11   64   150.0    
    3   17   12   64   149.2    
    3   17   13   64   148.5    
    3   17   14   64   147.7    
    3   17   15   64   146.9    
    3   17   16   64   146.1    
    3   17   17   64   145.4    
    3   17   18   64   144.6    
    3   17   19   64   143.9    
    3   17   20   64   142.7    
    3   17   21   64   141.1    
    4    1    2   64   158.9    
    4    1    3   64   157.3    
    4    1    4   64   155.8    
    4    1    5   64   154.6    
    4    1    6   64   153.9    
    4    1    7   64   153.1    
    4    1    8   64   152.3    
    4    1    9   64   151.5    
    4    1   10   64   150.8    
    4    1   11   64   150.0    
    4    1   12   64   149.2    
    4    1   13   64   148.5    
    4    1   14   64   147.7    
    4    1   15   64   146.9    
    4    1   16   64   146.1    
    4    1   17   64   145.4    
    4    1   18   64   144.6    
    4    1   19   64   143.9    
    4    1   20   64   142.7    
    4    1   21   64   141.1    
    4   17    2   64   158.9    
    4   17    3   64   157.3    
    4   17    4   64   155.8    
    4   17    5   64   154.6    
    4   17    6   64   153.9    
    4   17    7   64   153.1    
    4   17    8   64   152.3    
    4   17    9   64   151.5    
    4   17   10   64   150.8    
    4   17   11   64   150.0    
    4   17   12   64   149.2    
    4   17   13   64   148.5    
    4   17   14   64   147.7    
    4   17   15   64   146.9    
    4   17   16   64   146.1    
    4   17   17   64   145.4    
    4   17   18   64   144.6    
    4   17   19   64   143.9    
    4   17   20   64   142.7    
    4   17   21   64   141.1    
    5    1    2   64   158.9    
    5    1    3   64   157.3    
    5    1    4   64   155.8    
    5    1    5   64   154.6    
    5    1    6   64   153.9    
    5    1    7   64   153.1    
    5    1    8   64   152.3    
    5    1    9   64   151.5    
    5    1   10   64   150.8    
    5    1   11   64   150.0    
    5    1   12   64   149.2    
    5    1   13   64   148.5    
    5    1   14   64   147.7    
    5    1   15   64   146.9    
    5    1   16   64   146.1    
    5    1   17   64   145.4    
    5    1   18   64   144.6    
    5    1   19   64   143.9    
    5    1   20   64   142.7    
    5    1   21   64   141.1    
    5   17    2   64   158.9    
    5   17    3   64   157.3    
    5   17    4   64   155.8    
    5   17    5   64   154.6    
    5   17    6   64   153.9    
    5   17    7   64   153.1    
    5   17    8   64   152.3    
    5   17    9   64   151.5    
    5   17   10   64   150.8    
    5   17   11   64   150.0    
    5   17   12   64   149.2    
    5   17   13   64   148.5    
    5   17   14   64   147.7    
    5   17   15   64   146.9    
    5   17   16   64   146.1    
    5   17   17   64   145.4    
    5   17   18   64   144.6    
    5   17   19   64   143.9    
    5   17   20   64   142.7    
    5   17   21   64   141.1    



   4 GAGING STATIONS WERE SPECIFIED.
     (Lakes are identified by a negative value of the Lake Number)
     RECORDS WILL BE WRITTEN TO SEPARATE OUTPUT FILES REPRESENTED BY FOLLOWING UNIT NUMBERS:

 Lake Gages:
  GAGE #    LAKE     UNIT   OUTTYPE
       1      -1     -26       1
       2      -2     -27       2
       3      -3     -28       0
       4      -4     -29       4




1
                            STRESS PERIOD NO.    1, LENGTH =   400.0000    
                            -----------------------------------------------

                              NUMBER OF TIME STEPS =    50

                               MULTIPLIER FOR DELT =     1.030

                            INITIAL TIME STEP SIZE =   3.546201    



                         ET SURFACE
 READING ON UNIT   11 WITH FORMAT: (24F6.1)            

         1     2     3     4     5     6     7     8     9    10    11    12    13    14    15    16    17    18    19    20
        21    22
 ...........................................................................................................................
   1  160.0 159.0 157.4 155.9 154.7 153.9 153.1 152.3 151.6 150.8 150.0 149.2 148.4 147.7 146.9 146.1 145.3 144.5 143.8 142.6
      141.0 140.0
   2  160.0 159.0 157.4 155.9 154.7 153.9 153.1 152.3 151.6 150.8 150.0 149.2 148.4 147.7 146.9 146.1 145.3 144.5 143.8 142.6
      141.0 140.0
   3  160.0 159.0 157.4 155.9 154.7 153.9 153.1 152.3 151.6 150.8 150.0 149.2 148.4 147.7 146.9 146.1 145.3 144.5 143.8 142.6
      141.0 140.0
   4  160.0 159.0 157.4 155.9 154.7 153.9 153.1 152.3 151.6 150.8 150.0 149.2 148.4 147.7 146.9 146.1 145.3 144.5 143.8 142.6
      141.0 140.0
   5  160.0 159.0 157.4 155.9 154.7 153.9 153.1 152.3 151.6 150.8 150.0 149.2 148.4 147.7 146.9 146.1 145.3 144.5 143.8 142.6
      141.0 140.0
   6  160.0 159.0 157.4 155.9 154.7 153.9 153.1 152.3 151.6 150.8 150.0 149.2 148.4 147.7 146.9 146.1 145.3 144.5 143.8 142.6
      141.0 140.0
   7  160.0 159.0 157.4 155.9 105.0 105.0 105.0 125.0 105.0 105.0 105.0 105.0 105.0 147.7 146.9 146.1 145.3 144.5 143.8 142.6
      141.0 140.0
   8  160.0 159.0 157.4 155.9 105.0  95.0 105.0 120.0 105.0  95.0  95.0  95.0 105.0 120.0  95.0  95.0 120.0  95.0  95.0 142.6
      141.0 140.0
   9  160.0 159.0 157.4 155.9 105.0  95.0  95.0 105.0  95.0  95.0  95.0  95.0  95.0 105.0  95.0  95.0 105.0  95.0  95.0 142.6
      141.0 140.0
  10  160.0 159.0 157.4 155.9 105.0  95.0 105.0 120.0 105.0  95.0  95.0  95.0 105.0 120.0 105.0 105.0 120.0 105.0 105.0 142.6
      141.0 140.0
  11  160.0 159.0 157.4 155.9 105.0 105.0 105.0 125.0 105.0 105.0 105.0 105.0 105.0 147.7 146.9 146.1 145.3 144.5 143.8 142.6
      141.0 140.0
  12  160.0 159.0 157.4 155.9 154.7 153.9 153.1 152.3 151.6 150.8 150.0 149.2 148.4 147.7 146.9 146.1 145.3 144.5 143.8 142.6
      141.0 140.0
  13  160.0 159.0 157.4 155.9 154.7 153.9 153.1 152.3 151.6 150.8 150.0 149.2 148.4 147.7 146.9 146.1 145.3 144.5 143.8 142.6
      141.0 140.0
  14  160.0 159.0 157.4 155.9 154.7 153.9 153.1 152.3 151.6 150.8 150.0 149.2 148.4 147.7 146.9 146.1 145.3 144.5 143.8 142.6
      141.0 140.0
  15  160.0 159.0 157.4 155.9 154.7 153.9 153.1 152.3 151.6 150.8 150.0 149.2 148.4 147.7 146.9 146.1 145.3 144.5 143.8 142.6
      141.0 140.0
  16  160.0 159.0 157.4 155.9 154.7 153.9 153.1 152.3 151.6 150.8 150.0 149.2 148.4 147.7 146.9 146.1 145.3 144.5 143.8 142.6
      141.0 140.0
  17  160.0 159.0 157.4 155.9 154.7 153.9 153.1 152.3 151.6 150.8 150.0 149.2 148.4 147.7 146.9 146.1 145.3 144.5 143.8 142.6
      141.0 140.0

  EVAPOTRANSPIRATION RATE =  4.120000E-02

         EXTINCTION DEPTH =   15.0000    

                 RECHARGE =   0.00000    


 LAKE PACKAGE ACTIVE:  CALCULATED LAKE STAGE FOR EACH TIME STEP WILL BE STORED IN HNEW ARRAY.

 INITIAL LAKE STAGE:  LAKE    STAGE

                        1   115.000
                        2   115.000
                        3   115.000
                        4   115.000




 If any subsequent steady-state stress periods, min. and max. stages for each lake will be read in Record 9a.





                      LAKE ID ARRAY FOR LAYER   1
 READING ON UNIT   16 WITH FORMAT: (24I3)              

        1   2   3   4   5   6   7   8   9  10  11  12  13  14  15  16  17  18  19  20  21  22
 ............................................................................................
   1    0   0   0   0   0   0   0   0   0   0   0   0   0   0   0   0   0   0   0   0   0   0
   2    0   0   0   0   0   0   0   0   0   0   0   0   0   0   0   0   0   0   0   0   0   0
   3    0   0   0   0   0   0   0   0   0   0   0   0   0   0   0   0   0   0   0   0   0   0
   4    0   0   0   0   0   0   0   0   0   0   0   0   0   0   0   0   0   0   0   0   0   0
   5    0   0   0   0   0   0   0   0   0   0   0   0   0   0   0   0   0   0   0   0   0   0
   6    0   0   0   0   0   0   0   0   0   0   0   0   0   0   0   0   0   0   0   0   0   0
   7    0   0   0   0   2   2   2   0   1   1   1   1   1   0   0   0   0   0   0   0   0   0
   8    0   0   0   0   2   2   2   0   1   1   1   1   1   0   3   3   0   4   4   0   0   0
   9    0   0   0   0   2   2   2   1   1   1   1   1   1   1   3   3   3   4   4   0   0   0
  10    0   0   0   0   2   2   2   0   1   1   1   1   1   0   3   3   0   4   4   0   0   0
  11    0   0   0   0   2   2   2   0   1   1   1   1   1   0   0   0   0   0   0   0   0   0
  12    0   0   0   0   0   0   0   0   0   0   0   0   0   0   0   0   0   0   0   0   0   0
  13    0   0   0   0   0   0   0   0   0   0   0   0   0   0   0   0   0   0   0   0   0   0
  14    0   0   0   0   0   0   0   0   0   0   0   0   0   0   0   0   0   0   0   0   0   0
  15    0   0   0   0   0   0   0   0   0   0   0   0   0   0   0   0   0   0   0   0   0   0
  16    0   0   0   0   0   0   0   0   0   0   0   0   0   0   0   0   0   0   0   0   0   0
  17    0   0   0   0   0   0   0   0   0   0   0   0   0   0   0   0   0   0   0   0   0   0



                      LAKE ID ARRAY FOR LAYER   2
 READING ON UNIT   16 WITH FORMAT: (24I3)              

        1   2   3   4   5   6   7   8   9  10  11  12  13  14  15  16  17  18  19  20  21  22
 ............................................................................................
   1    0   0   0   0   0   0   0   0   0   0   0   0   0   0   0   0   0   0   0   0   0   0
   2    0   0   0   0   0   0   0   0   0   0   0   0   0   0   0   0   0   0   0   0   0   0
   3    0   0   0   0   0   0   0   0   0   0   0   0   0   0   0   0   0   0   0   0   0   0
   4    0   0   0   0   0   0   0   0   0   0   0   0   0   0   0   0   0   0   0   0   0   0
   5    0   0   0   0   0   0   0   0   0   0   0   0   0   0   0   0   0   0   0   0   0   0
   6    0   0   0   0   0   0   0   0   0   0   0   0   0   0   0   0   0   0   0   0   0   0
   7    0   0   0   0   0   0   0   0   0   0   0   0   0   0   0   0   0   0   0   0   0   0
   8    0   0   0   0   0   2   0   0   0   1   1   1   0   0   3   3   0   4   4   0   0   0
   9    0   0   0   0   0   2   2   0   1   1   1   1   1   0   3   3   0   4   4   0   0   0
  10    0   0   0   0   0   2   0   0   0   1   1   1   0   0   0   0   0   0   0   0   0   0
  11    0   0   0   0   0   0   0   0   0   0   0   0   0   0   0   0   0   0   0   0   0   0
  12    0   0   0   0   0   0   0   0   0   0   0   0   0   0   0   0   0   0   0   0   0   0
  13    0   0   0   0   0   0   0   0   0   0   0   0   0   0   0   0   0   0   0   0   0   0
  14    0   0   0   0   0   0   0   0   0   0   0   0   0   0   0   0   0   0   0   0   0   0
  15    0   0   0   0   0   0   0   0   0   0   0   0   0   0   0   0   0   0   0   0   0   0
  16    0   0   0   0   0   0   0   0   0   0   0   0   0   0   0   0   0   0   0   0   0   0
  17    0   0   0   0   0   0   0   0   0   0   0   0   0   0   0   0   0   0   0   0   0   0

            LAKE ID ARRAY =              0 FOR LAYER   3

            LAKE ID ARRAY =              0 FOR LAYER   4

            LAKE ID ARRAY =              0 FOR LAYER   5





   LAKEBED LEAKANCE ARRAY =  0.100000     FOR LAYER   1

   LAKEBED LEAKANCE ARRAY =  0.100000     FOR LAYER   2

   LAKEBED LEAKANCE ARRAY =  0.100000     FOR LAYER   3

   LAKEBED LEAKANCE ARRAY =  0.100000     FOR LAYER   4

   LAKEBED LEAKANCE ARRAY =  0.100000     FOR LAYER   5

       LOCATIONS, LAKE #, INTERFACE TYPE FOR GRID CELLS ADJACENT TO LAKES:
     -----------------------------------------------------------------------
     LAYER #    ROW #    COLUMN #   LAKE #  INTERFACE TYPE  LAKEBED LEAKANCE
         1         7         4         2         2             0.10000
         1         8         4         2         2             0.10000
         1         9         4         2         2             0.10000
         1        10         4         2         2             0.10000
         1        11         4         2         2             0.10000
         1         6         5         2         3             0.10000
         2         7         5         2         6             0.10000
         2         8         5         2         6             0.10000
         2         8         5         2         2             0.10000
         2         9         5         2         6             0.10000
         2         9         5         2         2             0.10000
         2        10         5         2         6             0.10000
         2        10         5         2         2             0.10000
         2        11         5         2         6             0.10000
         1        12         5         2         4             0.10000
         1         6         6         2         3             0.10000
         2         7         6         2         6             0.10000
         2         7         6         2         3             0.10000
         3         8         6         2         6             0.10000
         3         9         6         2         6             0.10000
         3        10         6         2         6             0.10000
         2        11         6         2         6             0.10000
         2        11         6         2         4             0.10000
         1        12         6         2         4             0.10000
         1         6         7         2         3             0.10000
         2         7         7         2         6             0.10000
         2         8         7         2         6             0.10000
         2         8         7         2         1             0.10000
         2         8         7         2         3             0.10000
         3         9         7         2         6             0.10000
         2        10         7         2         6             0.10000
         2        10         7         2         1             0.10000
         2        10         7         2         4             0.10000
         2        11         7         2         6             0.10000
         1        12         7         2         4             0.10000
         1         7         8         2         1             0.10000
         1         7         8         1         2             0.10000
         1         8         8         2         1             0.10000
         1         8         8         1         2             0.10000
         1         8         8         1         3             0.10000
         2         9         8         1         6             0.10000
         2         9         8         2         1             0.10000
         2         9         8         1         2             0.10000
         1        10         8         2         1             0.10000
         1        10         8         1         2             0.10000
         1        10         8         1         4             0.10000
         1        11         8         2         1             0.10000
         1        11         8         1         2             0.10000
         1         6         9         1         3             0.10000
         2         7         9         1         6             0.10000
         2         8         9         1         6             0.10000
         2         8         9         1         2             0.10000
         2         8         9         1         3             0.10000
         3         9         9         1         6             0.10000
         2        10         9         1         6             0.10000
         2        10         9         1         2             0.10000
         2        10         9         1         4             0.10000
         2        11         9         1         6             0.10000
         1        12         9         1         4             0.10000
         1         6        10         1         3             0.10000
         2         7        10         1         6             0.10000
         2         7        10         1         3             0.10000
         3         8        10         1         6             0.10000
         3         9        10         1         6             0.10000
         3        10        10         1         6             0.10000
         2        11        10         1         6             0.10000
         2        11        10         1         4             0.10000
         1        12        10         1         4             0.10000
         1         6        11         1         3             0.10000
         2         7        11         1         6             0.10000
         2         7        11         1         3             0.10000
         3         8        11         1         6             0.10000
         3         9        11         1         6             0.10000
         3        10        11         1         6             0.10000
         2        11        11         1         6             0.10000
         2        11        11         1         4             0.10000
         1        12        11         1         4             0.10000
         1         6        12         1         3             0.10000
         2         7        12         1         6             0.10000
         2         7        12         1         3             0.10000
         3         8        12         1         6             0.10000
         3         9        12         1         6             0.10000
         3        10        12         1         6             0.10000
         2        11        12         1         6             0.10000
         2        11        12         1         4             0.10000
         1        12        12         1         4             0.10000
         1         6        13         1         3             0.10000
         2         7        13         1         6             0.10000
         2         8        13         1         6             0.10000
         2         8        13         1         1             0.10000
         2         8        13         1         3             0.10000
         3         9        13         1         6             0.10000
         2        10        13         1         6             0.10000
         2        10        13         1         1             0.10000
         2        10        13         1         4             0.10000
         2        11        13         1         6             0.10000
         1        12        13         1         4             0.10000
         1         7        14         1         1             0.10000
         1         8        14         1         1             0.10000
         1         8        14         3         2             0.10000
         1         8        14         1         3             0.10000
         2         8        14         3         2             0.10000
         2         9        14         1         6             0.10000
         2         9        14         1         1             0.10000
         2         9        14         3         2             0.10000
         1        10        14         1         1             0.10000
         1        10        14         3         2             0.10000
         1        10        14         1         4             0.10000
         1        11        14         1         1             0.10000
         1         7        15         3         3             0.10000
         2         7        15         3         3             0.10000
         3         8        15         3         6             0.10000
         3         9        15         3         6             0.10000
         2        10        15         3         6             0.10000
         2        10        15         3         4             0.10000
         1        11        15         3         4             0.10000
         1         7        16         3         3             0.10000
         2         7        16         3         3             0.10000
         3         8        16         3         6             0.10000
         3         9        16         3         6             0.10000
         2        10        16         3         6             0.10000
         2        10        16         3         4             0.10000
         1        11        16         3         4             0.10000
         1         8        17         3         1             0.10000
         1         8        17         4         2             0.10000
         1         8        17         3         3             0.10000
         2         8        17         3         1             0.10000
         2         8        17         4         2             0.10000
         2         9        17         3         6             0.10000
         2         9        17         3         1             0.10000
         2         9        17         4         2             0.10000
         1        10        17         3         1             0.10000
         1        10        17         4         2             0.10000
         1        10        17         3         4             0.10000
         1         7        18         4         3             0.10000
         2         7        18         4         3             0.10000
         3         8        18         4         6             0.10000
         3         9        18         4         6             0.10000
         2        10        18         4         6             0.10000
         2        10        18         4         4             0.10000
         1        11        18         4         4             0.10000
         1         7        19         4         3             0.10000
         2         7        19         4         3             0.10000
         3         8        19         4         6             0.10000
         3         9        19         4         6             0.10000
         2        10        19         4         6             0.10000
         2        10        19         4         4             0.10000
         1        11        19         4         4             0.10000
         1         8        20         4         1             0.10000
         2         8        20         4         1             0.10000
         1         9        20         4         1             0.10000
         2         9        20         4         1             0.10000
         1        10        20         4         1             0.10000

     NUMBER OF LAKE-AQUIFER CELL INTERFACES =   153


 STAGE/VOLUME RELATION FOR LAKE  1

       STAGE       VOLUME         AREA

   9.7000E+01   0.0000E+00   2.7500E+06
   9.7333E+01   9.1667E+05   2.7500E+06
   9.7667E+01   1.8333E+06   2.7500E+06
   9.8000E+01   2.7500E+06   2.7500E+06
   9.8333E+01   3.6667E+06   2.7500E+06
   9.8667E+01   4.5833E+06   2.7500E+06
   9.9000E+01   5.5000E+06   2.7500E+06
   9.9333E+01   6.4167E+06   2.7500E+06
   9.9667E+01   7.3333E+06   2.7500E+06
   1.0000E+02   8.2500E+06   2.7500E+06
   1.0033E+02   9.1667E+06   2.7500E+06
   1.0067E+02   1.0083E+07   2.7500E+06
   1.0100E+02   1.1000E+07   2.7500E+06
   1.0133E+02   1.1917E+07   2.7500E+06
   1.0167E+02   1.2833E+07   2.7500E+06
   1.0200E+02   1.3750E+07   2.7500E+06
   1.0233E+02   1.4667E+07   2.7500E+06
   1.0267E+02   1.5583E+07   2.7500E+06
   1.0300E+02   1.6500E+07   2.7500E+06
   1.0333E+02   1.7417E+07   2.7500E+06
   1.0367E+02   1.8333E+07   2.7500E+06
   1.0400E+02   1.9250E+07   2.7500E+06
   1.0433E+02   2.0167E+07   2.7500E+06
   1.0467E+02   2.1083E+07   2.7500E+06
   1.0500E+02   2.2000E+07   2.7500E+06
   1.0533E+02   2.2917E+07   2.7500E+06
   1.0567E+02   2.3833E+07   2.7500E+06
   1.0600E+02   2.4750E+07   2.7500E+06
   1.0633E+02   2.5667E+07   2.7500E+06
   1.0667E+02   2.6583E+07   2.7500E+06
   1.0700E+02   2.7500E+07   6.7500E+06
   1.0733E+02   2.9750E+07   6.7500E+06
   1.0767E+02   3.2000E+07   6.7500E+06
   1.0800E+02   3.4250E+07   6.7500E+06
   1.0833E+02   3.6500E+07   6.7500E+06
   1.0867E+02   3.8750E+07   6.7500E+06
   1.0900E+02   4.1000E+07   6.7500E+06
   1.0933E+02   4.3250E+07   6.7500E+06
   1.0967E+02   4.5500E+07   6.7500E+06
   1.1000E+02   4.7750E+07   6.7500E+06
   1.1033E+02   5.0000E+07   6.7500E+06
   1.1067E+02   5.2250E+07   6.7500E+06
   1.1100E+02   5.4500E+07   6.7500E+06
   1.1133E+02   5.6750E+07   6.7500E+06
   1.1167E+02   5.9000E+07   6.7500E+06
   1.1200E+02   6.1250E+07   6.7500E+06
   1.1233E+02   6.3500E+07   6.7500E+06
   1.1267E+02   6.5750E+07   6.7500E+06
   1.1300E+02   6.8000E+07   6.7500E+06
   1.1333E+02   7.0250E+07   6.7500E+06
   1.1367E+02   7.2500E+07   6.7500E+06
   1.1400E+02   7.4750E+07   6.7500E+06
   1.1433E+02   7.7000E+07   6.7500E+06
   1.1467E+02   7.9250E+07   6.7500E+06
   1.1500E+02   8.1500E+07   6.7500E+06
   1.1533E+02   8.3750E+07   6.7500E+06
   1.1567E+02   8.6000E+07   6.7500E+06
   1.1600E+02   8.8250E+07   6.7500E+06
   1.1633E+02   9.0500E+07   6.7500E+06
   1.1667E+02   9.2750E+07   6.7500E+06
   1.1700E+02   9.5000E+07   6.7500E+06
   1.1733E+02   9.7251E+07   6.7500E+06
   1.1767E+02   9.9501E+07   6.7500E+06
   1.1800E+02   1.0175E+08   6.7500E+06
   1.1833E+02   1.0400E+08   6.7500E+06
   1.1867E+02   1.0625E+08   6.7500E+06
   1.1900E+02   1.0850E+08   6.7500E+06
   1.1933E+02   1.1075E+08   6.7500E+06
   1.1967E+02   1.1300E+08   6.7500E+06
   1.2000E+02   1.1525E+08   6.7500E+06
   1.2033E+02   1.1750E+08   6.7500E+06
   1.2067E+02   1.1975E+08   6.7500E+06
   1.2100E+02   1.2200E+08   6.7500E+06
   1.2133E+02   1.2425E+08   6.7500E+06
   1.2167E+02   1.2650E+08   6.7500E+06
   1.2200E+02   1.2875E+08   6.7500E+06
   1.2233E+02   1.3100E+08   6.7500E+06
   1.2267E+02   1.3325E+08   6.7500E+06
   1.2300E+02   1.3550E+08   6.7500E+06
   1.2333E+02   1.3775E+08   6.7500E+06
   1.2367E+02   1.4000E+08   6.7500E+06
   1.2400E+02   1.4225E+08   6.7500E+06
   1.2433E+02   1.4450E+08   6.7500E+06
   1.2467E+02   1.4675E+08   6.7500E+06
   1.2500E+02   1.4900E+08   6.7500E+06
   1.2533E+02   1.5125E+08   6.7500E+06
   1.2567E+02   1.5350E+08   6.7500E+06
   1.2600E+02   1.5575E+08   6.7500E+06
   1.2633E+02   1.5800E+08   6.7500E+06
   1.2667E+02   1.6025E+08   6.7500E+06
   1.2700E+02   1.6250E+08   6.7500E+06
   1.2733E+02   1.6475E+08   6.7500E+06
   1.2767E+02   1.6700E+08   6.7500E+06
   1.2800E+02   1.6925E+08   6.7500E+06
   1.2833E+02   1.7150E+08   6.7500E+06
   1.2867E+02   1.7375E+08   6.7500E+06
   1.2900E+02   1.7600E+08   6.7500E+06
   1.2933E+02   1.7825E+08   6.7500E+06
   1.2967E+02   1.8050E+08   6.7500E+06
   1.3000E+02   1.8275E+08   6.7500E+06
   1.3033E+02   1.8500E+08   6.7500E+06
   1.3067E+02   1.8725E+08   6.7500E+06
   1.3100E+02   1.8950E+08   6.7500E+06
   1.3133E+02   1.9175E+08   6.7500E+06
   1.3167E+02   1.9400E+08   6.7500E+06
   1.3200E+02   1.9625E+08   6.7500E+06
   1.3233E+02   1.9850E+08   6.7500E+06
   1.3267E+02   2.0075E+08   6.7500E+06
   1.3300E+02   2.0300E+08   6.7500E+06
   1.3333E+02   2.0525E+08   6.7500E+06
   1.3367E+02   2.0750E+08   6.7500E+06
   1.3400E+02   2.0975E+08   6.7500E+06
   1.3433E+02   2.1200E+08   6.7500E+06
   1.3467E+02   2.1425E+08   6.7500E+06
   1.3500E+02   2.1650E+08   6.7500E+06
   1.3533E+02   2.1875E+08   6.7500E+06
   1.3567E+02   2.2100E+08   6.7500E+06
   1.3600E+02   2.2325E+08   6.7500E+06
   1.3633E+02   2.2550E+08   6.7500E+06
   1.3667E+02   2.2775E+08   6.7500E+06
   1.3700E+02   2.3000E+08   6.7500E+06
   1.3733E+02   2.3225E+08   6.7500E+06
   1.3767E+02   2.3450E+08   6.7500E+06
   1.3800E+02   2.3675E+08   6.7500E+06
   1.3833E+02   2.3900E+08   6.7500E+06
   1.3867E+02   2.4124E+08   6.7500E+06
   1.3900E+02   2.4349E+08   6.7500E+06
   1.3933E+02   2.4574E+08   6.7500E+06
   1.3967E+02   2.4799E+08   6.7500E+06
   1.4000E+02   2.5024E+08   6.7500E+06
   1.4033E+02   2.5249E+08   6.7500E+06
   1.4067E+02   2.5474E+08   6.7500E+06
   1.4100E+02   2.5699E+08   6.7500E+06
   1.4133E+02   2.5924E+08   6.7500E+06
   1.4167E+02   2.6149E+08   6.7500E+06
   1.4200E+02   2.6374E+08   6.7500E+06
   1.4233E+02   2.6599E+08   6.7500E+06
   1.4267E+02   2.6824E+08   6.7500E+06
   1.4300E+02   2.7049E+08   6.7500E+06
   1.4333E+02   2.7274E+08   6.7500E+06
   1.4367E+02   2.7499E+08   6.7500E+06
   1.4400E+02   2.7724E+08   6.7500E+06
   1.4433E+02   2.7949E+08   6.7500E+06
   1.4467E+02   2.8174E+08   6.7500E+06
   1.4500E+02   2.8399E+08   6.7500E+06
   1.4533E+02   2.8624E+08   6.7500E+06
   1.4567E+02   2.8849E+08   6.7500E+06
   1.4600E+02   2.9074E+08   6.7500E+06
   1.4633E+02   2.9299E+08   6.7500E+06
   1.4667E+02   2.9524E+08   6.7500E+06
   1.4700E+02   2.9749E+08   6.7500E+06



 STAGE/VOLUME RELATION FOR LAKE  2

       STAGE       VOLUME         AREA

   9.7000E+01   0.0000E+00   1.0000E+06
   9.7333E+01   3.3333E+05   1.0000E+06
   9.7667E+01   6.6667E+05   1.0000E+06
   9.8000E+01   1.0000E+06   1.0000E+06
   9.8333E+01   1.3333E+06   1.0000E+06
   9.8667E+01   1.6667E+06   1.0000E+06
   9.9000E+01   2.0000E+06   1.0000E+06
   9.9333E+01   2.3333E+06   1.0000E+06
   9.9667E+01   2.6667E+06   1.0000E+06
   1.0000E+02   3.0000E+06   1.0000E+06
   1.0033E+02   3.3333E+06   1.0000E+06
   1.0067E+02   3.6667E+06   1.0000E+06
   1.0100E+02   4.0000E+06   1.0000E+06
   1.0133E+02   4.3333E+06   1.0000E+06
   1.0167E+02   4.6667E+06   1.0000E+06
   1.0200E+02   5.0000E+06   1.0000E+06
   1.0233E+02   5.3333E+06   1.0000E+06
   1.0267E+02   5.6667E+06   1.0000E+06
   1.0300E+02   6.0000E+06   1.0000E+06
   1.0333E+02   6.3333E+06   1.0000E+06
   1.0367E+02   6.6667E+06   1.0000E+06
   1.0400E+02   7.0000E+06   1.0000E+06
   1.0433E+02   7.3333E+06   1.0000E+06
   1.0467E+02   7.6667E+06   1.0000E+06
   1.0500E+02   8.0000E+06   1.0000E+06
   1.0533E+02   8.3333E+06   1.0000E+06
   1.0567E+02   8.6667E+06   1.0000E+06
   1.0600E+02   9.0000E+06   1.0000E+06
   1.0633E+02   9.3333E+06   1.0000E+06
   1.0667E+02   9.6667E+06   1.0000E+06
   1.0700E+02   1.0000E+07   3.7500E+06
   1.0733E+02   1.1250E+07   3.7500E+06
   1.0767E+02   1.2500E+07   3.7500E+06
   1.0800E+02   1.3750E+07   3.7500E+06
   1.0833E+02   1.5000E+07   3.7500E+06
   1.0867E+02   1.6250E+07   3.7500E+06
   1.0900E+02   1.7500E+07   3.7500E+06
   1.0933E+02   1.8750E+07   3.7500E+06
   1.0967E+02   2.0000E+07   3.7500E+06
   1.1000E+02   2.1250E+07   3.7500E+06
   1.1033E+02   2.2500E+07   3.7500E+06
   1.1067E+02   2.3750E+07   3.7500E+06
   1.1100E+02   2.5000E+07   3.7500E+06
   1.1133E+02   2.6250E+07   3.7500E+06
   1.1167E+02   2.7500E+07   3.7500E+06
   1.1200E+02   2.8750E+07   3.7500E+06
   1.1233E+02   3.0000E+07   3.7500E+06
   1.1267E+02   3.1250E+07   3.7500E+06
   1.1300E+02   3.2500E+07   3.7500E+06
   1.1333E+02   3.3750E+07   3.7500E+06
   1.1367E+02   3.5000E+07   3.7500E+06
   1.1400E+02   3.6250E+07   3.7500E+06
   1.1433E+02   3.7500E+07   3.7500E+06
   1.1467E+02   3.8750E+07   3.7500E+06
   1.1500E+02   4.0000E+07   3.7500E+06
   1.1533E+02   4.1250E+07   3.7500E+06
   1.1567E+02   4.2500E+07   3.7500E+06
   1.1600E+02   4.3750E+07   3.7500E+06
   1.1633E+02   4.5000E+07   3.7500E+06
   1.1667E+02   4.6250E+07   3.7500E+06
   1.1700E+02   4.7500E+07   3.7500E+06
   1.1733E+02   4.8750E+07   3.7500E+06
   1.1767E+02   5.0000E+07   3.7500E+06
   1.1800E+02   5.1250E+07   3.7500E+06
   1.1833E+02   5.2500E+07   3.7500E+06
   1.1867E+02   5.3750E+07   3.7500E+06
   1.1900E+02   5.5000E+07   3.7500E+06
   1.1933E+02   5.6250E+07   3.7500E+06
   1.1967E+02   5.7500E+07   3.7500E+06
   1.2000E+02   5.8750E+07   3.7500E+06
   1.2033E+02   6.0000E+07   3.7500E+06
   1.2067E+02   6.1250E+07   3.7500E+06
   1.2100E+02   6.2500E+07   3.7500E+06
   1.2133E+02   6.3750E+07   3.7500E+06
   1.2167E+02   6.5000E+07   3.7500E+06
   1.2200E+02   6.6250E+07   3.7500E+06
   1.2233E+02   6.7500E+07   3.7500E+06
   1.2267E+02   6.8750E+07   3.7500E+06
   1.2300E+02   7.0000E+07   3.7500E+06
   1.2333E+02   7.1250E+07   3.7500E+06
   1.2367E+02   7.2500E+07   3.7500E+06
   1.2400E+02   7.3750E+07   3.7500E+06
   1.2433E+02   7.5000E+07   3.7500E+06
   1.2467E+02   7.6250E+07   3.7500E+06
   1.2500E+02   7.7500E+07   3.7500E+06
   1.2533E+02   7.8750E+07   3.7500E+06
   1.2567E+02   8.0000E+07   3.7500E+06
   1.2600E+02   8.1250E+07   3.7500E+06
   1.2633E+02   8.2500E+07   3.7500E+06
   1.2667E+02   8.3750E+07   3.7500E+06
   1.2700E+02   8.5000E+07   3.7500E+06
   1.2733E+02   8.6250E+07   3.7500E+06
   1.2767E+02   8.7500E+07   3.7500E+06
   1.2800E+02   8.8750E+07   3.7500E+06
   1.2833E+02   9.0000E+07   3.7500E+06
   1.2867E+02   9.1250E+07   3.7500E+06
   1.2900E+02   9.2500E+07   3.7500E+06
   1.2933E+02   9.3750E+07   3.7500E+06
   1.2967E+02   9.5000E+07   3.7500E+06
   1.3000E+02   9.6251E+07   3.7500E+06
   1.3033E+02   9.7501E+07   3.7500E+06
   1.3067E+02   9.8751E+07   3.7500E+06
   1.3100E+02   1.0000E+08   3.7500E+06
   1.3133E+02   1.0125E+08   3.7500E+06
   1.3167E+02   1.0250E+08   3.7500E+06
   1.3200E+02   1.0375E+08   3.7500E+06
   1.3233E+02   1.0500E+08   3.7500E+06
   1.3267E+02   1.0625E+08   3.7500E+06
   1.3300E+02   1.0750E+08   3.7500E+06
   1.3333E+02   1.0875E+08   3.7500E+06
   1.3367E+02   1.1000E+08   3.7500E+06
   1.3400E+02   1.1125E+08   3.7500E+06
   1.3433E+02   1.1250E+08   3.7500E+06
   1.3467E+02   1.1375E+08   3.7500E+06
   1.3500E+02   1.1500E+08   3.7500E+06
   1.3533E+02   1.1625E+08   3.7500E+06
   1.3567E+02   1.1750E+08   3.7500E+06
   1.3600E+02   1.1875E+08   3.7500E+06
   1.3633E+02   1.2000E+08   3.7500E+06
   1.3667E+02   1.2125E+08   3.7500E+06
   1.3700E+02   1.2250E+08   3.7500E+06
   1.3733E+02   1.2375E+08   3.7500E+06
   1.3767E+02   1.2500E+08   3.7500E+06
   1.3800E+02   1.2625E+08   3.7500E+06
   1.3833E+02   1.2750E+08   3.7500E+06
   1.3867E+02   1.2875E+08   3.7500E+06
   1.3900E+02   1.3000E+08   3.7500E+06
   1.3933E+02   1.3125E+08   3.7500E+06
   1.3967E+02   1.3250E+08   3.7500E+06
   1.4000E+02   1.3375E+08   3.7500E+06
   1.4033E+02   1.3500E+08   3.7500E+06
   1.4067E+02   1.3625E+08   3.7500E+06
   1.4100E+02   1.3750E+08   3.7500E+06
   1.4133E+02   1.3875E+08   3.7500E+06
   1.4167E+02   1.4000E+08   3.7500E+06
   1.4200E+02   1.4125E+08   3.7500E+06
   1.4233E+02   1.4250E+08   3.7500E+06
   1.4267E+02   1.4375E+08   3.7500E+06
   1.4300E+02   1.4500E+08   3.7500E+06
   1.4333E+02   1.4625E+08   3.7500E+06
   1.4367E+02   1.4750E+08   3.7500E+06
   1.4400E+02   1.4875E+08   3.7500E+06
   1.4433E+02   1.5000E+08   3.7500E+06
   1.4467E+02   1.5125E+08   3.7500E+06
   1.4500E+02   1.5250E+08   3.7500E+06
   1.4533E+02   1.5375E+08   3.7500E+06
   1.4567E+02   1.5500E+08   3.7500E+06
   1.4600E+02   1.5625E+08   3.7500E+06
   1.4633E+02   1.5750E+08   3.7500E+06
   1.4667E+02   1.5875E+08   3.7500E+06
   1.4700E+02   1.6000E+08   3.7500E+06



 STAGE/VOLUME RELATION FOR LAKE  3

       STAGE       VOLUME         AREA

   9.7000E+01   0.0000E+00   1.0000E+06
   9.7333E+01   3.3333E+05   1.0000E+06
   9.7667E+01   6.6667E+05   1.0000E+06
   9.8000E+01   1.0000E+06   1.0000E+06
   9.8333E+01   1.3333E+06   1.0000E+06
   9.8667E+01   1.6667E+06   1.0000E+06
   9.9000E+01   2.0000E+06   1.0000E+06
   9.9333E+01   2.3333E+06   1.0000E+06
   9.9667E+01   2.6667E+06   1.0000E+06
   1.0000E+02   3.0000E+06   1.0000E+06
   1.0033E+02   3.3333E+06   1.0000E+06
   1.0067E+02   3.6667E+06   1.0000E+06
   1.0100E+02   4.0000E+06   1.0000E+06
   1.0133E+02   4.3333E+06   1.0000E+06
   1.0167E+02   4.6667E+06   1.0000E+06
   1.0200E+02   5.0000E+06   1.0000E+06
   1.0233E+02   5.3333E+06   1.0000E+06
   1.0267E+02   5.6667E+06   1.0000E+06
   1.0300E+02   6.0000E+06   1.0000E+06
   1.0333E+02   6.3333E+06   1.0000E+06
   1.0367E+02   6.6667E+06   1.0000E+06
   1.0400E+02   7.0000E+06   1.0000E+06
   1.0433E+02   7.3333E+06   1.0000E+06
   1.0467E+02   7.6667E+06   1.0000E+06
   1.0500E+02   8.0000E+06   1.0000E+06
   1.0533E+02   8.3333E+06   1.0000E+06
   1.0567E+02   8.6667E+06   1.0000E+06
   1.0600E+02   9.0000E+06   1.0000E+06
   1.0633E+02   9.3333E+06   1.0000E+06
   1.0667E+02   9.6667E+06   1.0000E+06
   1.0700E+02   1.0000E+07   1.7500E+06
   1.0733E+02   1.0583E+07   1.7500E+06
   1.0767E+02   1.1167E+07   1.7500E+06
   1.0800E+02   1.1750E+07   1.7500E+06
   1.0833E+02   1.2333E+07   1.7500E+06
   1.0867E+02   1.2917E+07   1.7500E+06
   1.0900E+02   1.3500E+07   1.7500E+06
   1.0933E+02   1.4083E+07   1.7500E+06
   1.0967E+02   1.4667E+07   1.7500E+06
   1.1000E+02   1.5250E+07   1.7500E+06
   1.1033E+02   1.5833E+07   1.7500E+06
   1.1067E+02   1.6417E+07   1.7500E+06
   1.1100E+02   1.7000E+07   1.7500E+06
   1.1133E+02   1.7583E+07   1.7500E+06
   1.1167E+02   1.8167E+07   1.7500E+06
   1.1200E+02   1.8750E+07   1.7500E+06
   1.1233E+02   1.9333E+07   1.7500E+06
   1.1267E+02   1.9917E+07   1.7500E+06
   1.1300E+02   2.0500E+07   1.7500E+06
   1.1333E+02   2.1083E+07   1.7500E+06
   1.1367E+02   2.1667E+07   1.7500E+06
   1.1400E+02   2.2250E+07   1.7500E+06
   1.1433E+02   2.2833E+07   1.7500E+06
   1.1467E+02   2.3417E+07   1.7500E+06
   1.1500E+02   2.4000E+07   1.7500E+06
   1.1533E+02   2.4583E+07   1.7500E+06
   1.1567E+02   2.5167E+07   1.7500E+06
   1.1600E+02   2.5750E+07   1.7500E+06
   1.1633E+02   2.6333E+07   1.7500E+06
   1.1667E+02   2.6917E+07   1.7500E+06
   1.1700E+02   2.7500E+07   1.7500E+06
   1.1733E+02   2.8083E+07   1.7500E+06
   1.1767E+02   2.8667E+07   1.7500E+06
   1.1800E+02   2.9250E+07   1.7500E+06
   1.1833E+02   2.9833E+07   1.7500E+06
   1.1867E+02   3.0417E+07   1.7500E+06
   1.1900E+02   3.1000E+07   1.7500E+06
   1.1933E+02   3.1583E+07   1.7500E+06
   1.1967E+02   3.2167E+07   1.7500E+06
   1.2000E+02   3.2750E+07   1.7500E+06
   1.2033E+02   3.3333E+07   1.7500E+06
   1.2067E+02   3.3917E+07   1.7500E+06
   1.2100E+02   3.4500E+07   1.7500E+06
   1.2133E+02   3.5083E+07   1.7500E+06
   1.2167E+02   3.5667E+07   1.7500E+06
   1.2200E+02   3.6250E+07   1.7500E+06
   1.2233E+02   3.6833E+07   1.7500E+06
   1.2267E+02   3.7417E+07   1.7500E+06
   1.2300E+02   3.8000E+07   1.7500E+06
   1.2333E+02   3.8583E+07   1.7500E+06
   1.2367E+02   3.9167E+07   1.7500E+06
   1.2400E+02   3.9750E+07   1.7500E+06
   1.2433E+02   4.0333E+07   1.7500E+06
   1.2467E+02   4.0917E+07   1.7500E+06
   1.2500E+02   4.1500E+07   1.7500E+06
   1.2533E+02   4.2083E+07   1.7500E+06
   1.2567E+02   4.2667E+07   1.7500E+06
   1.2600E+02   4.3250E+07   1.7500E+06
   1.2633E+02   4.3833E+07   1.7500E+06
   1.2667E+02   4.4417E+07   1.7500E+06
   1.2700E+02   4.5000E+07   1.7500E+06
   1.2733E+02   4.5583E+07   1.7500E+06
   1.2767E+02   4.6167E+07   1.7500E+06
   1.2800E+02   4.6750E+07   1.7500E+06
   1.2833E+02   4.7333E+07   1.7500E+06
   1.2867E+02   4.7917E+07   1.7500E+06
   1.2900E+02   4.8500E+07   1.7500E+06
   1.2933E+02   4.9083E+07   1.7500E+06
   1.2967E+02   4.9667E+07   1.7500E+06
   1.3000E+02   5.0250E+07   1.7500E+06
   1.3033E+02   5.0833E+07   1.7500E+06
   1.3067E+02   5.1416E+07   1.7500E+06
   1.3100E+02   5.2000E+07   1.7500E+06
   1.3133E+02   5.2583E+07   1.7500E+06
   1.3167E+02   5.3166E+07   1.7500E+06
   1.3200E+02   5.3750E+07   1.7500E+06
   1.3233E+02   5.4333E+07   1.7500E+06
   1.3267E+02   5.4916E+07   1.7500E+06
   1.3300E+02   5.5500E+07   1.7500E+06
   1.3333E+02   5.6083E+07   1.7500E+06
   1.3367E+02   5.6666E+07   1.7500E+06
   1.3400E+02   5.7250E+07   1.7500E+06
   1.3433E+02   5.7833E+07   1.7500E+06
   1.3467E+02   5.8416E+07   1.7500E+06
   1.3500E+02   5.9000E+07   1.7500E+06
   1.3533E+02   5.9583E+07   1.7500E+06
   1.3567E+02   6.0166E+07   1.7500E+06
   1.3600E+02   6.0750E+07   1.7500E+06
   1.3633E+02   6.1333E+07   1.7500E+06
   1.3667E+02   6.1916E+07   1.7500E+06
   1.3700E+02   6.2500E+07   1.7500E+06
   1.3733E+02   6.3083E+07   1.7500E+06
   1.3767E+02   6.3666E+07   1.7500E+06
   1.3800E+02   6.4250E+07   1.7500E+06
   1.3833E+02   6.4833E+07   1.7500E+06
   1.3867E+02   6.5416E+07   1.7500E+06
   1.3900E+02   6.6000E+07   1.7500E+06
   1.3933E+02   6.6583E+07   1.7500E+06
   1.3967E+02   6.7166E+07   1.7500E+06
   1.4000E+02   6.7750E+07   1.7500E+06
   1.4033E+02   6.8333E+07   1.7500E+06
   1.4067E+02   6.8916E+07   1.7500E+06
   1.4100E+02   6.9500E+07   1.7500E+06
   1.4133E+02   7.0083E+07   1.7500E+06
   1.4167E+02   7.0666E+07   1.7500E+06
   1.4200E+02   7.1250E+07   1.7500E+06
   1.4233E+02   7.1833E+07   1.7500E+06
   1.4267E+02   7.2416E+07   1.7500E+06
   1.4300E+02   7.3000E+07   1.7500E+06
   1.4333E+02   7.3583E+07   1.7500E+06
   1.4367E+02   7.4166E+07   1.7500E+06
   1.4400E+02   7.4750E+07   1.7500E+06
   1.4433E+02   7.5333E+07   1.7500E+06
   1.4467E+02   7.5917E+07   1.7500E+06
   1.4500E+02   7.6500E+07   1.7500E+06
   1.4533E+02   7.7083E+07   1.7500E+06
   1.4567E+02   7.7667E+07   1.7500E+06
   1.4600E+02   7.8250E+07   1.7500E+06
   1.4633E+02   7.8833E+07   1.7500E+06
   1.4667E+02   7.9417E+07   1.7500E+06
   1.4700E+02   8.0000E+07   1.7500E+06



 STAGE/VOLUME RELATION FOR LAKE  4

       STAGE       VOLUME         AREA

   9.7000E+01   0.0000E+00   1.0000E+06
   9.7333E+01   3.3333E+05   1.0000E+06
   9.7667E+01   6.6667E+05   1.0000E+06
   9.8000E+01   1.0000E+06   1.0000E+06
   9.8333E+01   1.3333E+06   1.0000E+06
   9.8667E+01   1.6667E+06   1.0000E+06
   9.9000E+01   2.0000E+06   1.0000E+06
   9.9333E+01   2.3333E+06   1.0000E+06
   9.9667E+01   2.6667E+06   1.0000E+06
   1.0000E+02   3.0000E+06   1.0000E+06
   1.0033E+02   3.3333E+06   1.0000E+06
   1.0067E+02   3.6667E+06   1.0000E+06
   1.0100E+02   4.0000E+06   1.0000E+06
   1.0133E+02   4.3333E+06   1.0000E+06
   1.0167E+02   4.6667E+06   1.0000E+06
   1.0200E+02   5.0000E+06   1.0000E+06
   1.0233E+02   5.3333E+06   1.0000E+06
   1.0267E+02   5.6667E+06   1.0000E+06
   1.0300E+02   6.0000E+06   1.0000E+06
   1.0333E+02   6.3333E+06   1.0000E+06
   1.0367E+02   6.6667E+06   1.0000E+06
   1.0400E+02   7.0000E+06   1.0000E+06
   1.0433E+02   7.3333E+06   1.0000E+06
   1.0467E+02   7.6667E+06   1.0000E+06
   1.0500E+02   8.0000E+06   1.0000E+06
   1.0533E+02   8.3333E+06   1.0000E+06
   1.0567E+02   8.6667E+06   1.0000E+06
   1.0600E+02   9.0000E+06   1.0000E+06
   1.0633E+02   9.3333E+06   1.0000E+06
   1.0667E+02   9.6667E+06   1.0000E+06
   1.0700E+02   1.0000E+07   1.5000E+06
   1.0733E+02   1.0500E+07   1.5000E+06
   1.0767E+02   1.1000E+07   1.5000E+06
   1.0800E+02   1.1500E+07   1.5000E+06
   1.0833E+02   1.2000E+07   1.5000E+06
   1.0867E+02   1.2500E+07   1.5000E+06
   1.0900E+02   1.3000E+07   1.5000E+06
   1.0933E+02   1.3500E+07   1.5000E+06
   1.0967E+02   1.4000E+07   1.5000E+06
   1.1000E+02   1.4500E+07   1.5000E+06
   1.1033E+02   1.5000E+07   1.5000E+06
   1.1067E+02   1.5500E+07   1.5000E+06
   1.1100E+02   1.6000E+07   1.5000E+06
   1.1133E+02   1.6500E+07   1.5000E+06
   1.1167E+02   1.7000E+07   1.5000E+06
   1.1200E+02   1.7500E+07   1.5000E+06
   1.1233E+02   1.8000E+07   1.5000E+06
   1.1267E+02   1.8500E+07   1.5000E+06
   1.1300E+02   1.9000E+07   1.5000E+06
   1.1333E+02   1.9500E+07   1.5000E+06
   1.1367E+02   2.0000E+07   1.5000E+06
   1.1400E+02   2.0500E+07   1.5000E+06
   1.1433E+02   2.1000E+07   1.5000E+06
   1.1467E+02   2.1500E+07   1.5000E+06
   1.1500E+02   2.2000E+07   1.5000E+06
   1.1533E+02   2.2500E+07   1.5000E+06
   1.1567E+02   2.3000E+07   1.5000E+06
   1.1600E+02   2.3500E+07   1.5000E+06
   1.1633E+02   2.4000E+07   1.5000E+06
   1.1667E+02   2.4500E+07   1.5000E+06
   1.1700E+02   2.5000E+07   1.5000E+06
   1.1733E+02   2.5500E+07   1.5000E+06
   1.1767E+02   2.6000E+07   1.5000E+06
   1.1800E+02   2.6500E+07   1.5000E+06
   1.1833E+02   2.7000E+07   1.5000E+06
   1.1867E+02   2.7500E+07   1.5000E+06
   1.1900E+02   2.8000E+07   1.5000E+06
   1.1933E+02   2.8500E+07   1.5000E+06
   1.1967E+02   2.9000E+07   1.5000E+06
   1.2000E+02   2.9500E+07   1.5000E+06
   1.2033E+02   3.0000E+07   1.5000E+06
   1.2067E+02   3.0500E+07   1.5000E+06
   1.2100E+02   3.1000E+07   1.5000E+06
   1.2133E+02   3.1500E+07   1.5000E+06
   1.2167E+02   3.2000E+07   1.5000E+06
   1.2200E+02   3.2500E+07   1.5000E+06
   1.2233E+02   3.3000E+07   1.5000E+06
   1.2267E+02   3.3500E+07   1.5000E+06
   1.2300E+02   3.4000E+07   1.5000E+06
   1.2333E+02   3.4500E+07   1.5000E+06
   1.2367E+02   3.5000E+07   1.5000E+06
   1.2400E+02   3.5500E+07   1.5000E+06
   1.2433E+02   3.6000E+07   1.5000E+06
   1.2467E+02   3.6500E+07   1.5000E+06
   1.2500E+02   3.7000E+07   1.5000E+06
   1.2533E+02   3.7500E+07   1.5000E+06
   1.2567E+02   3.8000E+07   1.5000E+06
   1.2600E+02   3.8500E+07   1.5000E+06
   1.2633E+02   3.9000E+07   1.5000E+06
   1.2667E+02   3.9500E+07   1.5000E+06
   1.2700E+02   4.0000E+07   1.5000E+06
   1.2733E+02   4.0500E+07   1.5000E+06
   1.2767E+02   4.1000E+07   1.5000E+06
   1.2800E+02   4.1500E+07   1.5000E+06
   1.2833E+02   4.2000E+07   1.5000E+06
   1.2867E+02   4.2500E+07   1.5000E+06
   1.2900E+02   4.3000E+07   1.5000E+06
   1.2933E+02   4.3500E+07   1.5000E+06
   1.2967E+02   4.4000E+07   1.5000E+06
   1.3000E+02   4.4500E+07   1.5000E+06
   1.3033E+02   4.5000E+07   1.5000E+06
   1.3067E+02   4.5500E+07   1.5000E+06
   1.3100E+02   4.6000E+07   1.5000E+06
   1.3133E+02   4.6500E+07   1.5000E+06
   1.3167E+02   4.7000E+07   1.5000E+06
   1.3200E+02   4.7500E+07   1.5000E+06
   1.3233E+02   4.8000E+07   1.5000E+06
   1.3267E+02   4.8500E+07   1.5000E+06
   1.3300E+02   4.9000E+07   1.5000E+06
   1.3333E+02   4.9500E+07   1.5000E+06
   1.3367E+02   5.0000E+07   1.5000E+06
   1.3400E+02   5.0500E+07   1.5000E+06
   1.3433E+02   5.1000E+07   1.5000E+06
   1.3467E+02   5.1500E+07   1.5000E+06
   1.3500E+02   5.2000E+07   1.5000E+06
   1.3533E+02   5.2500E+07   1.5000E+06
   1.3567E+02   5.3000E+07   1.5000E+06
   1.3600E+02   5.3500E+07   1.5000E+06
   1.3633E+02   5.4000E+07   1.5000E+06
   1.3667E+02   5.4500E+07   1.5000E+06
   1.3700E+02   5.5000E+07   1.5000E+06
   1.3733E+02   5.5500E+07   1.5000E+06
   1.3767E+02   5.6000E+07   1.5000E+06
   1.3800E+02   5.6500E+07   1.5000E+06
   1.3833E+02   5.7000E+07   1.5000E+06
   1.3867E+02   5.7500E+07   1.5000E+06
   1.3900E+02   5.8000E+07   1.5000E+06
   1.3933E+02   5.8500E+07   1.5000E+06
   1.3967E+02   5.9000E+07   1.5000E+06
   1.4000E+02   5.9500E+07   1.5000E+06
   1.4033E+02   6.0000E+07   1.5000E+06
   1.4067E+02   6.0500E+07   1.5000E+06
   1.4100E+02   6.1000E+07   1.5000E+06
   1.4133E+02   6.1500E+07   1.5000E+06
   1.4167E+02   6.2000E+07   1.5000E+06
   1.4200E+02   6.2500E+07   1.5000E+06
   1.4233E+02   6.3000E+07   1.5000E+06
   1.4267E+02   6.3500E+07   1.5000E+06
   1.4300E+02   6.4000E+07   1.5000E+06
   1.4333E+02   6.4500E+07   1.5000E+06
   1.4367E+02   6.5000E+07   1.5000E+06
   1.4400E+02   6.5500E+07   1.5000E+06
   1.4433E+02   6.6000E+07   1.5000E+06
   1.4467E+02   6.6500E+07   1.5000E+06
   1.4500E+02   6.7000E+07   1.5000E+06
   1.4533E+02   6.7500E+07   1.5000E+06
   1.4567E+02   6.8000E+07   1.5000E+06
   1.4600E+02   6.8500E+07   1.5000E+06
   1.4633E+02   6.9000E+07   1.5000E+06
   1.4667E+02   6.9500E+07   1.5000E+06
   1.4700E+02   7.0000E+07   1.5000E+06


 NUMBER OF CONNECTED LAKE SYSTEMS IN SIMULATION IS   2

          SYSTEM  1

  NUMBER OF LAKES IN SYSTEM    3  CENTER LAKE NUMBER    1

 SUBLAKE NUMBER   SILL ELEVATION

         2            112.00
         3            110.00

          SYSTEM  2

  NUMBER OF LAKES IN SYSTEM    2  CENTER LAKE NUMBER    3

 SUBLAKE NUMBER   SILL ELEVATION

         4            108.00

 READ DATA FOR    2 LAKE SYSTEMS


 LAKE       PRECIP     EVAP     RUNOFF   WITHDRAW   BOTTOM     AREA
----------------------------------------------------------------------
   1     0.000E+00 4.120E-02 0.000E+00  0.000E+00 9.700E+01 6.750E+06
   2     0.000E+00 4.120E-02 0.000E+00  0.000E+00 9.700E+01 3.750E+06
   3     0.000E+00 4.120E-02 0.000E+00  0.000E+00 9.700E+01 1.750E+06
   4     0.000E+00 4.120E-02 0.000E+00  0.000E+00 9.700E+01 1.500E+06




         C               INTERFACE CONDUCTANCES BETWEEN LAKE AND AQUIFER CELLS
   L     O          (IF TYPE = 6, CONDUCTANCE (L^2/T) IS BETWEEN AQUIFER CELL AND OVERLYING LAKE CELL.)
   A     L  L  T    (IF TYPE = 1 TO 4, CONDUCTANCES ARE PER UNIT SATURATED THICKNESS (L/T).)
   Y  R  U  A  Y
   E  O  M  K  P                        LAKEBED      C O N D U C T A N C E S
   R  W  N  E  E     DELTA Y   DELTA X  LEAKANCE   LAKEBED   AQUIFER  COMBINED
 _______________________________________________________________________________
   1  7  4  2  2    5.00E+02  1.00E+03  1.00E-01  5.00E+01  3.00E+01  1.88E+01
   1  8  4  2  2    5.00E+02  1.00E+03  1.00E-01  5.00E+01  3.00E+01  1.88E+01
   1  9  4  2  2    5.00E+02  1.00E+03  1.00E-01  5.00E+01  3.00E+01  1.88E+01
   1 10  4  2  2    5.00E+02  1.00E+03  1.00E-01  5.00E+01  3.00E+01  1.88E+01
   1 11  4  2  2    5.00E+02  1.00E+03  1.00E-01  5.00E+01  3.00E+01  1.88E+01
   1  6  5  2  3    1.00E+03  5.00E+02  1.00E-01  5.00E+01  3.00E+01  1.88E+01
   2  7  5  2  6    5.00E+02  5.00E+02  1.00E-01  2.50E+04  1.50E+06  2.46E+04
   2  8  5  2  6    5.00E+02  5.00E+02  1.00E-01  2.50E+04  1.50E+06  2.46E+04
   2  8  5  2  2    5.00E+02  5.00E+02  1.00E-01  5.00E+01  6.00E+01  2.73E+01
   2  9  5  2  6    5.00E+02  5.00E+02  1.00E-01  2.50E+04  1.50E+06  2.46E+04
   2  9  5  2  2    5.00E+02  5.00E+02  1.00E-01  5.00E+01  6.00E+01  2.73E+01
   2 10  5  2  6    5.00E+02  5.00E+02  1.00E-01  2.50E+04  1.50E+06  2.46E+04
   2 10  5  2  2    5.00E+02  5.00E+02  1.00E-01  5.00E+01  6.00E+01  2.73E+01
   2 11  5  2  6    5.00E+02  5.00E+02  1.00E-01  2.50E+04  1.50E+06  2.46E+04
   1 12  5  2  4    1.00E+03  5.00E+02  1.00E-01  5.00E+01  3.00E+01  1.88E+01
   1  6  6  2  3    1.00E+03  5.00E+02  1.00E-01  5.00E+01  3.00E+01  1.88E+01
   2  7  6  2  6    5.00E+02  5.00E+02  1.00E-01  2.50E+04  1.50E+06  2.46E+04
   2  7  6  2  3    5.00E+02  5.00E+02  1.00E-01  5.00E+01  6.00E+01  2.73E+01
   3  8  6  2  6    5.00E+02  5.00E+02  1.00E-01  2.50E+04  1.50E+06  2.46E+04
   3  9  6  2  6    5.00E+02  5.00E+02  1.00E-01  2.50E+04  1.50E+06  2.46E+04
   3 10  6  2  6    5.00E+02  5.00E+02  1.00E-01  2.50E+04  1.50E+06  2.46E+04
   2 11  6  2  6    5.00E+02  5.00E+02  1.00E-01  2.50E+04  1.50E+06  2.46E+04
   2 11  6  2  4    5.00E+02  5.00E+02  1.00E-01  5.00E+01  6.00E+01  2.73E+01
   1 12  6  2  4    1.00E+03  5.00E+02  1.00E-01  5.00E+01  3.00E+01  1.88E+01
   1  6  7  2  3    1.00E+03  5.00E+02  1.00E-01  5.00E+01  3.00E+01  1.88E+01
   2  7  7  2  6    5.00E+02  5.00E+02  1.00E-01  2.50E+04  1.50E+06  2.46E+04
   2  8  7  2  6    5.00E+02  5.00E+02  1.00E-01  2.50E+04  1.50E+06  2.46E+04
   2  8  7  2  1    5.00E+02  5.00E+02  1.00E-01  5.00E+01  6.00E+01  2.73E+01
   2  8  7  2  3    5.00E+02  5.00E+02  1.00E-01  5.00E+01  6.00E+01  2.73E+01
   3  9  7  2  6    5.00E+02  5.00E+02  1.00E-01  2.50E+04  1.50E+06  2.46E+04
   2 10  7  2  6    5.00E+02  5.00E+02  1.00E-01  2.50E+04  1.50E+06  2.46E+04
   2 10  7  2  1    5.00E+02  5.00E+02  1.00E-01  5.00E+01  6.00E+01  2.73E+01
   2 10  7  2  4    5.00E+02  5.00E+02  1.00E-01  5.00E+01  6.00E+01  2.73E+01
   2 11  7  2  6    5.00E+02  5.00E+02  1.00E-01  2.50E+04  1.50E+06  2.46E+04
   1 12  7  2  4    1.00E+03  5.00E+02  1.00E-01  5.00E+01  3.00E+01  1.88E+01
   1  7  8  2  1    5.00E+02  5.00E+02  1.00E-01  5.00E+01  6.00E+01  2.73E+01
   1  7  8  1  2    5.00E+02  5.00E+02  1.00E-01  5.00E+01  6.00E+01  2.73E+01
   1  8  8  2  1    5.00E+02  5.00E+02  1.00E-01  5.00E+01  6.00E+01  2.73E+01
   1  8  8  1  2    5.00E+02  5.00E+02  1.00E-01  5.00E+01  6.00E+01  2.73E+01
   1  8  8  1  3    5.00E+02  5.00E+02  1.00E-01  5.00E+01  6.00E+01  2.73E+01
   2  9  8  1  6    5.00E+02  5.00E+02  1.00E-01  2.50E+04  1.50E+06  2.46E+04
   2  9  8  2  1    5.00E+02  5.00E+02  1.00E-01  5.00E+01  6.00E+01  2.73E+01
   2  9  8  1  2    5.00E+02  5.00E+02  1.00E-01  5.00E+01  6.00E+01  2.73E+01
   1 10  8  2  1    5.00E+02  5.00E+02  1.00E-01  5.00E+01  6.00E+01  2.73E+01
   1 10  8  1  2    5.00E+02  5.00E+02  1.00E-01  5.00E+01  6.00E+01  2.73E+01
   1 10  8  1  4    5.00E+02  5.00E+02  1.00E-01  5.00E+01  6.00E+01  2.73E+01
   1 11  8  2  1    5.00E+02  5.00E+02  1.00E-01  5.00E+01  6.00E+01  2.73E+01
   1 11  8  1  2    5.00E+02  5.00E+02  1.00E-01  5.00E+01  6.00E+01  2.73E+01
   1  6  9  1  3    1.00E+03  5.00E+02  1.00E-01  5.00E+01  3.00E+01  1.88E+01
   2  7  9  1  6    5.00E+02  5.00E+02  1.00E-01  2.50E+04  1.50E+06  2.46E+04
   2  8  9  1  6    5.00E+02  5.00E+02  1.00E-01  2.50E+04  1.50E+06  2.46E+04
   2  8  9  1  2    5.00E+02  5.00E+02  1.00E-01  5.00E+01  6.00E+01  2.73E+01
   2  8  9  1  3    5.00E+02  5.00E+02  1.00E-01  5.00E+01  6.00E+01  2.73E+01
   3  9  9  1  6    5.00E+02  5.00E+02  1.00E-01  2.50E+04  1.50E+06  2.46E+04
   2 10  9  1  6    5.00E+02  5.00E+02  1.00E-01  2.50E+04  1.50E+06  2.46E+04
   2 10  9  1  2    5.00E+02  5.00E+02  1.00E-01  5.00E+01  6.00E+01  2.73E+01
   2 10  9  1  4    5.00E+02  5.00E+02  1.00E-01  5.00E+01  6.00E+01  2.73E+01
   2 11  9  1  6    5.00E+02  5.00E+02  1.00E-01  2.50E+04  1.50E+06  2.46E+04
   1 12  9  1  4    1.00E+03  5.00E+02  1.00E-01  5.00E+01  3.00E+01  1.88E+01
   1  6 10  1  3    1.00E+03  5.00E+02  1.00E-01  5.00E+01  3.00E+01  1.88E+01
   2  7 10  1  6    5.00E+02  5.00E+02  1.00E-01  2.50E+04  1.50E+06  2.46E+04
   2  7 10  1  3    5.00E+02  5.00E+02  1.00E-01  5.00E+01  6.00E+01  2.73E+01
   3  8 10  1  6    5.00E+02  5.00E+02  1.00E-01  2.50E+04  1.50E+06  2.46E+04
   3  9 10  1  6    5.00E+02  5.00E+02  1.00E-01  2.50E+04  1.50E+06  2.46E+04
   3 10 10  1  6    5.00E+02  5.00E+02  1.00E-01  2.50E+04  1.50E+06  2.46E+04
   2 11 10  1  6    5.00E+02  5.00E+02  1.00E-01  2.50E+04  1.50E+06  2.46E+04
   2 11 10  1  4    5.00E+02  5.00E+02  1.00E-01  5.00E+01  6.00E+01  2.73E+01
   1 12 10  1  4    1.00E+03  5.00E+02  1.00E-01  5.00E+01  3.00E+01  1.88E+01
   1  6 11  1  3    1.00E+03  5.00E+02  1.00E-01  5.00E+01  3.00E+01  1.88E+01
   2  7 11  1  6    5.00E+02  5.00E+02  1.00E-01  2.50E+04  1.50E+06  2.46E+04
   2  7 11  1  3    5.00E+02  5.00E+02  1.00E-01  5.00E+01  6.00E+01  2.73E+01
   3  8 11  1  6    5.00E+02  5.00E+02  1.00E-01  2.50E+04  1.50E+06  2.46E+04
   3  9 11  1  6    5.00E+02  5.00E+02  1.00E-01  2.50E+04  1.50E+06  2.46E+04
   3 10 11  1  6    5.00E+02  5.00E+02  1.00E-01  2.50E+04  1.50E+06  2.46E+04
   2 11 11  1  6    5.00E+02  5.00E+02  1.00E-01  2.50E+04  1.50E+06  2.46E+04
   2 11 11  1  4    5.00E+02  5.00E+02  1.00E-01  5.00E+01  6.00E+01  2.73E+01
   1 12 11  1  4    1.00E+03  5.00E+02  1.00E-01  5.00E+01  3.00E+01  1.88E+01
   1  6 12  1  3    1.00E+03  5.00E+02  1.00E-01  5.00E+01  3.00E+01  1.88E+01
   2  7 12  1  6    5.00E+02  5.00E+02  1.00E-01  2.50E+04  1.50E+06  2.46E+04
   2  7 12  1  3    5.00E+02  5.00E+02  1.00E-01  5.00E+01  6.00E+01  2.73E+01
   3  8 12  1  6    5.00E+02  5.00E+02  1.00E-01  2.50E+04  1.50E+06  2.46E+04
   3  9 12  1  6    5.00E+02  5.00E+02  1.00E-01  2.50E+04  1.50E+06  2.46E+04
   3 10 12  1  6    5.00E+02  5.00E+02  1.00E-01  2.50E+04  1.50E+06  2.46E+04
   2 11 12  1  6    5.00E+02  5.00E+02  1.00E-01  2.50E+04  1.50E+06  2.46E+04
   2 11 12  1  4    5.00E+02  5.00E+02  1.00E-01  5.00E+01  6.00E+01  2.73E+01
   1 12 12  1  4    1.00E+03  5.00E+02  1.00E-01  5.00E+01  3.00E+01  1.88E+01
   1  6 13  1  3    1.00E+03  5.00E+02  1.00E-01  5.00E+01  3.00E+01  1.88E+01
   2  7 13  1  6    5.00E+02  5.00E+02  1.00E-01  2.50E+04  1.50E+06  2.46E+04
   2  8 13  1  6    5.00E+02  5.00E+02  1.00E-01  2.50E+04  1.50E+06  2.46E+04
   2  8 13  1  1    5.00E+02  5.00E+02  1.00E-01  5.00E+01  6.00E+01  2.73E+01
   2  8 13  1  3    5.00E+02  5.00E+02  1.00E-01  5.00E+01  6.00E+01  2.73E+01
   3  9 13  1  6    5.00E+02  5.00E+02  1.00E-01  2.50E+04  1.50E+06  2.46E+04
   2 10 13  1  6    5.00E+02  5.00E+02  1.00E-01  2.50E+04  1.50E+06  2.46E+04
   2 10 13  1  1    5.00E+02  5.00E+02  1.00E-01  5.00E+01  6.00E+01  2.73E+01
   2 10 13  1  4    5.00E+02  5.00E+02  1.00E-01  5.00E+01  6.00E+01  2.73E+01
   2 11 13  1  6    5.00E+02  5.00E+02  1.00E-01  2.50E+04  1.50E+06  2.46E+04
   1 12 13  1  4    1.00E+03  5.00E+02  1.00E-01  5.00E+01  3.00E+01  1.88E+01
   1  7 14  1  1    5.00E+02  5.00E+02  1.00E-01  5.00E+01  6.00E+01  2.73E+01
   1  8 14  1  1    5.00E+02  5.00E+02  1.00E-01  5.00E+01  6.00E+01  2.73E+01
   1  8 14  3  2    5.00E+02  5.00E+02  1.00E-01  5.00E+01  6.00E+01  2.73E+01
   1  8 14  1  3    5.00E+02  5.00E+02  1.00E-01  5.00E+01  6.00E+01  2.73E+01
   2  8 14  3  2    5.00E+02  5.00E+02  1.00E-01  5.00E+01  6.00E+01  2.73E+01
   2  9 14  1  6    5.00E+02  5.00E+02  1.00E-01  2.50E+04  1.50E+06  2.46E+04
   2  9 14  1  1    5.00E+02  5.00E+02  1.00E-01  5.00E+01  6.00E+01  2.73E+01
   2  9 14  3  2    5.00E+02  5.00E+02  1.00E-01  5.00E+01  6.00E+01  2.73E+01
   1 10 14  1  1    5.00E+02  5.00E+02  1.00E-01  5.00E+01  6.00E+01  2.73E+01
   1 10 14  3  2    5.00E+02  5.00E+02  1.00E-01  5.00E+01  6.00E+01  2.73E+01
   1 10 14  1  4    5.00E+02  5.00E+02  1.00E-01  5.00E+01  6.00E+01  2.73E+01
   1 11 14  1  1    5.00E+02  5.00E+02  1.00E-01  5.00E+01  6.00E+01  2.73E+01
   1  7 15  3  3    5.00E+02  5.00E+02  1.00E-01  5.00E+01  6.00E+01  2.73E+01
   2  7 15  3  3    5.00E+02  5.00E+02  1.00E-01  5.00E+01  6.00E+01  2.73E+01
   3  8 15  3  6    5.00E+02  5.00E+02  1.00E-01  2.50E+04  1.50E+06  2.46E+04
   3  9 15  3  6    5.00E+02  5.00E+02  1.00E-01  2.50E+04  1.50E+06  2.46E+04
   2 10 15  3  6    5.00E+02  5.00E+02  1.00E-01  2.50E+04  1.50E+06  2.46E+04
   2 10 15  3  4    5.00E+02  5.00E+02  1.00E-01  5.00E+01  6.00E+01  2.73E+01
   1 11 15  3  4    5.00E+02  5.00E+02  1.00E-01  5.00E+01  6.00E+01  2.73E+01
   1  7 16  3  3    5.00E+02  5.00E+02  1.00E-01  5.00E+01  6.00E+01  2.73E+01
   2  7 16  3  3    5.00E+02  5.00E+02  1.00E-01  5.00E+01  6.00E+01  2.73E+01
   3  8 16  3  6    5.00E+02  5.00E+02  1.00E-01  2.50E+04  1.50E+06  2.46E+04
   3  9 16  3  6    5.00E+02  5.00E+02  1.00E-01  2.50E+04  1.50E+06  2.46E+04
   2 10 16  3  6    5.00E+02  5.00E+02  1.00E-01  2.50E+04  1.50E+06  2.46E+04
   2 10 16  3  4    5.00E+02  5.00E+02  1.00E-01  5.00E+01  6.00E+01  2.73E+01
   1 11 16  3  4    5.00E+02  5.00E+02  1.00E-01  5.00E+01  6.00E+01  2.73E+01
   1  8 17  3  1    5.00E+02  5.00E+02  1.00E-01  5.00E+01  6.00E+01  2.73E+01
   1  8 17  4  2    5.00E+02  5.00E+02  1.00E-01  5.00E+01  6.00E+01  2.73E+01
   1  8 17  3  3    5.00E+02  5.00E+02  1.00E-01  5.00E+01  6.00E+01  2.73E+01
   2  8 17  3  1    5.00E+02  5.00E+02  1.00E-01  5.00E+01  6.00E+01  2.73E+01
   2  8 17  4  2    5.00E+02  5.00E+02  1.00E-01  5.00E+01  6.00E+01  2.73E+01
   2  9 17  3  6    5.00E+02  5.00E+02  1.00E-01  2.50E+04  1.50E+06  2.46E+04
   2  9 17  3  1    5.00E+02  5.00E+02  1.00E-01  5.00E+01  6.00E+01  2.73E+01
   2  9 17  4  2    5.00E+02  5.00E+02  1.00E-01  5.00E+01  6.00E+01  2.73E+01
   1 10 17  3  1    5.00E+02  5.00E+02  1.00E-01  5.00E+01  6.00E+01  2.73E+01
   1 10 17  4  2    5.00E+02  5.00E+02  1.00E-01  5.00E+01  6.00E+01  2.73E+01
   1 10 17  3  4    5.00E+02  5.00E+02  1.00E-01  5.00E+01  6.00E+01  2.73E+01
   1  7 18  4  3    5.00E+02  5.00E+02  1.00E-01  5.00E+01  6.00E+01  2.73E+01
   2  7 18  4  3    5.00E+02  5.00E+02  1.00E-01  5.00E+01  6.00E+01  2.73E+01
   3  8 18  4  6    5.00E+02  5.00E+02  1.00E-01  2.50E+04  1.50E+06  2.46E+04
   3  9 18  4  6    5.00E+02  5.00E+02  1.00E-01  2.50E+04  1.50E+06  2.46E+04
   2 10 18  4  6    5.00E+02  5.00E+02  1.00E-01  2.50E+04  1.50E+06  2.46E+04
   2 10 18  4  4    5.00E+02  5.00E+02  1.00E-01  5.00E+01  6.00E+01  2.73E+01
   1 11 18  4  4    5.00E+02  5.00E+02  1.00E-01  5.00E+01  6.00E+01  2.73E+01
   1  7 19  4  3    5.00E+02  5.00E+02  1.00E-01  5.00E+01  6.00E+01  2.73E+01
   2  7 19  4  3    5.00E+02  5.00E+02  1.00E-01  5.00E+01  6.00E+01  2.73E+01
   3  8 19  4  6    5.00E+02  5.00E+02  1.00E-01  2.50E+04  1.50E+06  2.46E+04
   3  9 19  4  6    5.00E+02  5.00E+02  1.00E-01  2.50E+04  1.50E+06  2.46E+04
   2 10 19  4  6    5.00E+02  5.00E+02  1.00E-01  2.50E+04  1.50E+06  2.46E+04
   2 10 19  4  4    5.00E+02  5.00E+02  1.00E-01  5.00E+01  6.00E+01  2.73E+01
   1 11 19  4  4    5.00E+02  5.00E+02  1.00E-01  5.00E+01  6.00E+01  2.73E+01
   1  8 20  4  1    5.00E+02  1.00E+03  1.00E-01  5.00E+01  3.00E+01  1.88E+01
   2  8 20  4  1    5.00E+02  1.00E+03  1.00E-01  5.00E+01  3.00E+01  1.88E+01
   1  9 20  4  1    5.00E+02  1.00E+03  1.00E-01  5.00E+01  3.00E+01  1.88E+01
   2  9 20  4  1    5.00E+02  1.00E+03  1.00E-01  5.00E+01  3.00E+01  1.88E+01
   1 10 20  4  1    5.00E+02  1.00E+03  1.00E-01  5.00E+01  3.00E+01  1.88E+01


     NOTE: INFORMATION ABOUT CALCULATED LAKE/AQUIFER CONDUCTANCES WHEN USING BCF PACKAGE FOLLOWS: 

 IF WETDRY FLAG NOT TURNED ON, VERTICAL LEAKANCES ARE NOT SAVED:
 THEREFORE, LAKE/AQUIFER CONDUCTANCES ARE BASED SOLELY ON LAKEBED SPECIFICATION




 
 SOLVING FOR HEAD 

 AVERAGE SEED = 0.00000194
 MINIMUM SEED = 0.00000082

     5 ITERATION PARAMETERS CALCULATED FROM AVERAGE SEED:

  0.000000E+00 0.962671E+00 0.998607E+00 0.999948E+00 0.999998E+00

     8 ITERATIONS FOR TIME STEP   1 IN STRESS PERIOD    1

 HEAD/DRAWDOWN PRINTOUT FLAG = 0     TOTAL BUDGET PRINTOUT FLAG = 0
 CELL-BY-CELL FLOW TERM FLAG = 1

 OUTPUT FLAGS FOR ALL LAYERS ARE THE SAME:
   HEAD    DRAWDOWN  HEAD  DRAWDOWN
 PRINTOUT  PRINTOUT  SAVE    SAVE
 ----------------------------------
     0         0       0       0

 --------------------------------------------------------------------------------
 TIME STEP   1     NUMBER OF CONNECTED LAKES IS  4     TOTAL AREA =  0.137500000D+08



           SURFACE       SILL   WATER BUDGET  STAGE  CORRECTED   LAKE VOLUME
  LAKE       AREA      ELEVATION   STAGE   CORRECTION  STAGE     CORRECTION
 --------------------------------------------------------------------------------

   1     0.67500E+07 -99999.00    114.85      0.00    114.85     1950.6    
 --------------------------------------------------------------------------------

   2     0.37500E+07    112.00    114.85      0.00    114.85    -2863.2    
 --------------------------------------------------------------------------------

   3     0.17500E+07    110.00    114.85      0.00    114.85     3180.4    
 --------------------------------------------------------------------------------

   4     0.15000E+07    108.00    114.86      0.00    114.85    -2267.8    


     0  LAKE CELLS ARE DRY.

 PERIOD     1     TIME STEP     1     TIME STEP LENGTH  3.5462E+00
 PERIOD TIME  3.5462E+00     TOTAL SIMULATION TIME  3.5462E+00


                 HYDROLOGIC BUDGET SUMMARIES FOR SIMULATED LAKES
     (ALL FLUID FLUXES ARE VOLUMES ADDED TO THE LAKE DURING PRESENT TIME STEP)
     -------------------------------------------------------------------------
 LAKE    STAGE         VOLUME     VOL.CHANGE      PRECIP     EVAPORATION        RUNOFF
   1   114.8538     8.0512E+07   -9.8666E+05    0.0000E+00    9.8620E+05    0.0000E+00
   2   114.8538     3.9451E+07   -5.4812E+05    0.0000E+00    5.4789E+05    0.0000E+00
   3   114.8538     2.3744E+07   -2.5580E+05    0.0000E+00    2.5568E+05    0.0000E+00
   4   114.8538     2.1781E+07   -2.1925E+05    0.0000E+00    2.1916E+05    0.0000E+00

            GROUND WATER            SURFACE WATER        WATER
 LAKE    INFLOW     OUTFLOW      INFLOW     OUTFLOW       USE
   1  5.4217E+03  7.8422E+03  0.0000E+00  0.0000E+00  0.0000E+00
   2  4.7985E+03  2.1700E+03  0.0000E+00  0.0000E+00  0.0000E+00
   3  6.7077E+02  3.9668E+03  0.0000E+00  0.0000E+00  0.0000E+00
   4  3.2028E+03  1.0342E+03  0.0000E+00  0.0000E+00  0.0000E+00

      CONNECTED LAKE   TIME-STEP         STAGE-CHANGE          PERCENT
 LAKE    INFLUX      SURFACE AREA   TIME STEP  CUMULATIVE    DISCREPANCY
   1   1.9506E+03     6.7500E+06  -1.4617E-01 -1.4617E-01       0.000
   2  -2.8632E+03     3.7500E+06  -1.4617E-01 -1.4617E-01       0.000
   3   3.1804E+03     1.7500E+06  -1.4617E-01 -1.4617E-01       0.000
   4  -2.2678E+03     1.5000E+06  -1.4617E-01 -1.4617E-01       0.000
 --------------------------------------------------------------------------------



            CUMULATIVE HYDROLOGIC BUDGET SUMMARIES FOR SIMULATED LAKES
     (ALL FLUID FLUXES ARE SUMS OF VOLUMES ADDED TO THE LAKE SINCE INITIAL TIME)
     ---------------------------------------------------------------------------
 LAKE       PRECIP       EVAP       RUNOFF
   1     0.0000E+00  9.8620E+05  0.0000E+00
   2     0.0000E+00  5.4789E+05  0.0000E+00
   3     0.0000E+00  2.5568E+05  0.0000E+00
   4     0.0000E+00  2.1916E+05  0.0000E+00

            GROUND WATER            SURFACE WATER
 LAKE    INFLOW     OUTFLOW      INFLOW     OUTFLOW
   1  5.4217E+03  7.8422E+03  0.0000E+00  0.0000E+00
   2  4.7985E+03  2.1700E+03  0.0000E+00  0.0000E+00
   3  6.7077E+02  3.9668E+03  0.0000E+00  0.0000E+00
   4  3.2028E+03  1.0342E+03  0.0000E+00  0.0000E+00

         WATER    CONNECTED LAKE   CHANGE       PERCENT
 LAKE     USE         INFLUX       IN VOL.    DISCREPANCY
   1   0.0000E+00   1.9506E+03  -9.8666E+05      0.000
   2   0.0000E+00  -2.8632E+03  -5.4812E+05      0.000
   3   0.0000E+00   3.1804E+03  -2.5580E+05      0.000
   4   0.0000E+00  -2.2678E+03  -2.1925E+05      0.000
 --------------------------------------------------------------------------------


   1 CONNECTED LAKE SET

   4 LAKES:    1  2  3  4
 
 SOLVING FOR HEAD 
     8 ITERATIONS FOR TIME STEP   2 IN STRESS PERIOD    1

 HEAD/DRAWDOWN PRINTOUT FLAG = 0     TOTAL BUDGET PRINTOUT FLAG = 0
 CELL-BY-CELL FLOW TERM FLAG = 1

 OUTPUT FLAGS FOR ALL LAYERS ARE THE SAME:
   HEAD    DRAWDOWN  HEAD  DRAWDOWN
 PRINTOUT  PRINTOUT  SAVE    SAVE
 ----------------------------------
     0         0       0       0

 --------------------------------------------------------------------------------
 TIME STEP   2     NUMBER OF CONNECTED LAKES IS  4     TOTAL AREA =  0.137500000D+08



           SURFACE       SILL   WATER BUDGET  STAGE  CORRECTED   LAKE VOLUME
  LAKE       AREA      ELEVATION   STAGE   CORRECTION  STAGE     CORRECTION
 --------------------------------------------------------------------------------

   1     0.67500E+07 -99999.00    114.70      0.00    114.70     4496.0    
 --------------------------------------------------------------------------------

   2     0.37500E+07    112.00    114.70      0.00    114.70    -5050.3    
 --------------------------------------------------------------------------------

   3     0.17500E+07    110.00    114.70      0.00    114.70     5413.5    
 --------------------------------------------------------------------------------

   4     0.15000E+07    108.00    114.71      0.00    114.70    -4859.2    


     0  LAKE CELLS ARE DRY.

 PERIOD     1     TIME STEP     2     TIME STEP LENGTH  3.6526E+00
 PERIOD TIME  7.1988E+00     TOTAL SIMULATION TIME  7.1988E+00


                 HYDROLOGIC BUDGET SUMMARIES FOR SIMULATED LAKES
     (ALL FLUID FLUXES ARE VOLUMES ADDED TO THE LAKE DURING PRESENT TIME STEP)
     -------------------------------------------------------------------------
 LAKE    STAGE         VOLUME     VOL.CHANGE      PRECIP     EVAPORATION        RUNOFF
   1   114.7035     7.9498E+07   -1.0146E+06    0.0000E+00    1.0158E+06    0.0000E+00
   2   114.7035     3.8888E+07   -5.6366E+05    0.0000E+00    5.6432E+05    0.0000E+00
   3   114.7035     2.3481E+07   -2.6304E+05    0.0000E+00    2.6335E+05    0.0000E+00
   4   114.7035     2.1555E+07   -2.2547E+05    0.0000E+00    2.2573E+05    0.0000E+00

            GROUND WATER            SURFACE WATER        WATER
 LAKE    INFLOW     OUTFLOW      INFLOW     OUTFLOW       USE
   1  1.0436E+04  1.3780E+04  0.0000E+00  0.0000E+00  0.0000E+00
   2  9.6020E+03  3.8843E+03  0.0000E+00  0.0000E+00  0.0000E+00
   3  1.3254E+03  6.4337E+03  0.0000E+00  0.0000E+00  0.0000E+00
   4  6.6812E+03  1.5604E+03  0.0000E+00  0.0000E+00  0.0000E+00

      CONNECTED LAKE   TIME-STEP         STAGE-CHANGE          PERCENT
 LAKE    INFLUX      SURFACE AREA   TIME STEP  CUMULATIVE    DISCREPANCY
   1   4.4960E+03     6.7500E+06  -1.5031E-01 -2.9648E-01       0.000
   2  -5.0503E+03     3.7500E+06  -1.5031E-01 -2.9648E-01       0.000
   3   5.4135E+03     1.7500E+06  -1.5031E-01 -2.9648E-01      -0.001
   4  -4.8592E+03     1.5000E+06  -1.5031E-01 -2.9648E-01       0.001
 --------------------------------------------------------------------------------



            CUMULATIVE HYDROLOGIC BUDGET SUMMARIES FOR SIMULATED LAKES
     (ALL FLUID FLUXES ARE SUMS OF VOLUMES ADDED TO THE LAKE SINCE INITIAL TIME)
     ---------------------------------------------------------------------------
 LAKE       PRECIP       EVAP       RUNOFF
   1     0.0000E+00  2.0020E+06  0.0000E+00
   2     0.0000E+00  1.1122E+06  0.0000E+00
   3     0.0000E+00  5.1903E+05  0.0000E+00
   4     0.0000E+00  4.4489E+05  0.0000E+00

            GROUND WATER            SURFACE WATER
 LAKE    INFLOW     OUTFLOW      INFLOW     OUTFLOW
   1  1.5858E+04  2.1622E+04  0.0000E+00  0.0000E+00
   2  1.4400E+04  6.0543E+03  0.0000E+00  0.0000E+00
   3  1.9961E+03  1.0400E+04  0.0000E+00  0.0000E+00
   4  9.8841E+03  2.5947E+03  0.0000E+00  0.0000E+00

         WATER    CONNECTED LAKE   CHANGE       PERCENT
 LAKE     USE         INFLUX       IN VOL.    DISCREPANCY
   1   0.0000E+00   6.4467E+03  -2.0013E+06      0.000
   2   0.0000E+00  -7.9135E+03  -1.1118E+06      0.000
   3   0.0000E+00   8.5939E+03  -5.1884E+05      0.000
   4   0.0000E+00  -7.1270E+03  -4.4472E+05      0.000
 --------------------------------------------------------------------------------


   1 CONNECTED LAKE SET

   4 LAKES:    1  2  3  4
 
 SOLVING FOR HEAD 
     8 ITERATIONS FOR TIME STEP   3 IN STRESS PERIOD    1

 HEAD/DRAWDOWN PRINTOUT FLAG = 0     TOTAL BUDGET PRINTOUT FLAG = 0
 CELL-BY-CELL FLOW TERM FLAG = 1

 OUTPUT FLAGS FOR ALL LAYERS ARE THE SAME:
   HEAD    DRAWDOWN  HEAD  DRAWDOWN
 PRINTOUT  PRINTOUT  SAVE    SAVE
 ----------------------------------
     0         0       0       0

 --------------------------------------------------------------------------------
 TIME STEP   3     NUMBER OF CONNECTED LAKES IS  4     TOTAL AREA =  0.137500000D+08



           SURFACE       SILL   WATER BUDGET  STAGE  CORRECTED   LAKE VOLUME
  LAKE       AREA      ELEVATION   STAGE   CORRECTION  STAGE     CORRECTION
 --------------------------------------------------------------------------------

   1     0.67500E+07 -99999.00    114.55      0.00    114.55     7534.6    
 --------------------------------------------------------------------------------

   2     0.37500E+07    112.00    114.55      0.00    114.55    -6781.4    
 --------------------------------------------------------------------------------

   3     0.17500E+07    110.00    114.55      0.00    114.55     7011.4    
 --------------------------------------------------------------------------------

   4     0.15000E+07    108.00    114.55     -0.01    114.55    -7764.6    


     0  LAKE CELLS ARE DRY.

 PERIOD     1     TIME STEP     3     TIME STEP LENGTH  3.7622E+00
 PERIOD TIME  1.0961E+01     TOTAL SIMULATION TIME  1.0961E+01


                 HYDROLOGIC BUDGET SUMMARIES FOR SIMULATED LAKES
     (ALL FLUID FLUXES ARE VOLUMES ADDED TO THE LAKE DURING PRESENT TIME STEP)
     -------------------------------------------------------------------------
 LAKE    STAGE         VOLUME     VOL.CHANGE      PRECIP     EVAPORATION        RUNOFF
   1   114.5493     7.8457E+07   -1.0409E+06    0.0000E+00    1.0463E+06    0.0000E+00
   2   114.5493     3.8309E+07   -5.7827E+05    0.0000E+00    5.8125E+05    0.0000E+00
   3   114.5493     2.3211E+07   -2.6987E+05    0.0000E+00    2.7125E+05    0.0000E+00
   4   114.5493     2.1324E+07   -2.3132E+05    0.0000E+00    2.3250E+05    0.0000E+00

            GROUND WATER            SURFACE WATER        WATER
 LAKE    INFLOW     OUTFLOW      INFLOW     OUTFLOW       USE
   1  1.5806E+04  1.8028E+04  0.0000E+00  0.0000E+00  0.0000E+00
   2  1.4910E+04  5.1498E+03  0.0000E+00  0.0000E+00  0.0000E+00
   3  1.9636E+03  7.5912E+03  0.0000E+00  0.0000E+00  0.0000E+00
   4  1.0574E+04  1.6233E+03  0.0000E+00  0.0000E+00  0.0000E+00

      CONNECTED LAKE   TIME-STEP         STAGE-CHANGE          PERCENT
 LAKE    INFLUX      SURFACE AREA   TIME STEP  CUMULATIVE    DISCREPANCY
   1   7.5346E+03     6.7500E+06  -1.5421E-01 -4.5069E-01       0.000
   2  -6.7814E+03     3.7500E+06  -1.5421E-01 -4.5069E-01      -0.001
   3   7.0114E+03     1.7500E+06  -1.5421E-01 -4.5069E-01       0.000
   4  -7.7646E+03     1.5000E+06  -1.5421E-01 -4.5069E-01       0.000
 --------------------------------------------------------------------------------



            CUMULATIVE HYDROLOGIC BUDGET SUMMARIES FOR SIMULATED LAKES
     (ALL FLUID FLUXES ARE SUMS OF VOLUMES ADDED TO THE LAKE SINCE INITIAL TIME)
     ---------------------------------------------------------------------------
 LAKE       PRECIP       EVAP       RUNOFF
   1     0.0000E+00  3.0482E+06  0.0000E+00
   2     0.0000E+00  1.6935E+06  0.0000E+00
   3     0.0000E+00  7.9028E+05  0.0000E+00
   4     0.0000E+00  6.7739E+05  0.0000E+00

            GROUND WATER            SURFACE WATER
 LAKE    INFLOW     OUTFLOW      INFLOW     OUTFLOW
   1  3.1664E+04  3.9650E+04  0.0000E+00  0.0000E+00
   2  2.9311E+04  1.1204E+04  0.0000E+00  0.0000E+00
   3  3.9597E+03  1.7992E+04  0.0000E+00  0.0000E+00
   4  2.0458E+04  4.2180E+03  0.0000E+00  0.0000E+00

         WATER    CONNECTED LAKE   CHANGE       PERCENT
 LAKE     USE         INFLUX       IN VOL.    DISCREPANCY
   1   0.0000E+00   1.3981E+04  -3.0422E+06      0.000
   2   0.0000E+00  -1.4695E+04  -1.6901E+06      0.000
   3   0.0000E+00   1.5605E+04  -7.8871E+05      0.000
   4   0.0000E+00  -1.4892E+04  -6.7604E+05      0.000
 --------------------------------------------------------------------------------


   1 CONNECTED LAKE SET

   4 LAKES:    1  2  3  4
 
 SOLVING FOR HEAD 
     8 ITERATIONS FOR TIME STEP   4 IN STRESS PERIOD    1

 HEAD/DRAWDOWN PRINTOUT FLAG = 0     TOTAL BUDGET PRINTOUT FLAG = 0
 CELL-BY-CELL FLOW TERM FLAG = 1

 OUTPUT FLAGS FOR ALL LAYERS ARE THE SAME:
   HEAD    DRAWDOWN  HEAD  DRAWDOWN
 PRINTOUT  PRINTOUT  SAVE    SAVE
 ----------------------------------
     0         0       0       0

 --------------------------------------------------------------------------------
 TIME STEP   4     NUMBER OF CONNECTED LAKES IS  4     TOTAL AREA =  0.137500000D+08



           SURFACE       SILL   WATER BUDGET  STAGE  CORRECTED   LAKE VOLUME
  LAKE       AREA      ELEVATION   STAGE   CORRECTION  STAGE     CORRECTION
 --------------------------------------------------------------------------------

   1     0.67500E+07 -99999.00    114.39      0.00    114.39     11035.    
 --------------------------------------------------------------------------------

   2     0.37500E+07    112.00    114.39      0.00    114.39    -8219.3    
 --------------------------------------------------------------------------------

   3     0.17500E+07    110.00    114.39      0.00    114.39     8200.4    
 --------------------------------------------------------------------------------

   4     0.15000E+07    108.00    114.40     -0.01    114.39    -11016.    


     0  LAKE CELLS ARE DRY.

 PERIOD     1     TIME STEP     4     TIME STEP LENGTH  3.8750E+00
 PERIOD TIME  1.4836E+01     TOTAL SIMULATION TIME  1.4836E+01


                 HYDROLOGIC BUDGET SUMMARIES FOR SIMULATED LAKES
     (ALL FLUID FLUXES ARE VOLUMES ADDED TO THE LAKE DURING PRESENT TIME STEP)
     -------------------------------------------------------------------------
 LAKE    STAGE         VOLUME     VOL.CHANGE      PRECIP     EVAPORATION        RUNOFF
   1   114.3914     7.7391E+07   -1.0661E+06    0.0000E+00    1.0776E+06    0.0000E+00
   2   114.3914     3.7717E+07   -5.9224E+05    0.0000E+00    5.9869E+05    0.0000E+00
   3   114.3914     2.2935E+07   -2.7638E+05    0.0000E+00    2.7939E+05    0.0000E+00
   4   114.3914     2.1087E+07   -2.3690E+05    0.0000E+00    2.3948E+05    0.0000E+00

            GROUND WATER            SURFACE WATER        WATER
 LAKE    INFLOW     OUTFLOW      INFLOW     OUTFLOW       USE
   1  2.1548E+04  2.1016E+04  0.0000E+00  0.0000E+00  0.0000E+00
   2  2.0746E+04  6.0720E+03  0.0000E+00  0.0000E+00  0.0000E+00
   3  2.5873E+03  7.7822E+03  0.0000E+00  0.0000E+00  0.0000E+00
   4  1.5019E+04  1.4266E+03  0.0000E+00  0.0000E+00  0.0000E+00

      CONNECTED LAKE   TIME-STEP         STAGE-CHANGE          PERCENT
 LAKE    INFLUX      SURFACE AREA   TIME STEP  CUMULATIVE    DISCREPANCY
   1   1.1035E+04     6.7500E+06  -1.5793E-01 -6.0863E-01       0.000
   2  -8.2193E+03     3.7500E+06  -1.5793E-01 -6.0863E-01       0.000
   3   8.2004E+03     1.7500E+06  -1.5793E-01 -6.0863E-01       0.000
   4  -1.1016E+04     1.5000E+06  -1.5793E-01 -6.0863E-01       0.000
 --------------------------------------------------------------------------------



            CUMULATIVE HYDROLOGIC BUDGET SUMMARIES FOR SIMULATED LAKES
     (ALL FLUID FLUXES ARE SUMS OF VOLUMES ADDED TO THE LAKE SINCE INITIAL TIME)
     ---------------------------------------------------------------------------
 LAKE       PRECIP       EVAP       RUNOFF
   1     0.0000E+00  4.1259E+06  0.0000E+00
   2     0.0000E+00  2.2922E+06  0.0000E+00
   3     0.0000E+00  1.0697E+06  0.0000E+00
   4     0.0000E+00  9.1686E+05  0.0000E+00

            GROUND WATER            SURFACE WATER
 LAKE    INFLOW     OUTFLOW      INFLOW     OUTFLOW
   1  5.3212E+04  6.0666E+04  0.0000E+00  0.0000E+00
   2  5.0057E+04  1.7276E+04  0.0000E+00  0.0000E+00
   3  6.5470E+03  2.5774E+04  0.0000E+00  0.0000E+00
   4  3.5477E+04  5.6446E+03  0.0000E+00  0.0000E+00

         WATER    CONNECTED LAKE   CHANGE       PERCENT
 LAKE     USE         INFLUX       IN VOL.    DISCREPANCY
   1   0.0000E+00   2.5016E+04  -4.1083E+06      0.000
   2   0.0000E+00  -2.2914E+04  -2.2823E+06      0.000
   3   0.0000E+00   2.3806E+04  -1.0651E+06      0.000
   4   0.0000E+00  -2.5908E+04  -9.1294E+05      0.000
 --------------------------------------------------------------------------------


   1 CONNECTED LAKE SET

   4 LAKES:    1  2  3  4
 
 SOLVING FOR HEAD 
     8 ITERATIONS FOR TIME STEP   5 IN STRESS PERIOD    1

 HEAD/DRAWDOWN PRINTOUT FLAG = 0     TOTAL BUDGET PRINTOUT FLAG = 0
 CELL-BY-CELL FLOW TERM FLAG = 1

 OUTPUT FLAGS FOR ALL LAYERS ARE THE SAME:
   HEAD    DRAWDOWN  HEAD  DRAWDOWN
 PRINTOUT  PRINTOUT  SAVE    SAVE
 ----------------------------------
     0         0       0       0

 --------------------------------------------------------------------------------
 TIME STEP   5     NUMBER OF CONNECTED LAKES IS  4     TOTAL AREA =  0.137500000D+08



           SURFACE       SILL   WATER BUDGET  STAGE  CORRECTED   LAKE VOLUME
  LAKE       AREA      ELEVATION   STAGE   CORRECTION  STAGE     CORRECTION
 --------------------------------------------------------------------------------

   1     0.67500E+07 -99999.00    114.23      0.00    114.23     14992.    
 --------------------------------------------------------------------------------

   2     0.37500E+07    112.00    114.23      0.00    114.23    -9490.0    
 --------------------------------------------------------------------------------

   3     0.17500E+07    110.00    114.22      0.01    114.23     9139.5    
 --------------------------------------------------------------------------------

   4     0.15000E+07    108.00    114.24     -0.01    114.23    -14641.    


     0  LAKE CELLS ARE DRY.

 PERIOD     1     TIME STEP     5     TIME STEP LENGTH  3.9913E+00
 PERIOD TIME  1.8827E+01     TOTAL SIMULATION TIME  1.8827E+01


                 HYDROLOGIC BUDGET SUMMARIES FOR SIMULATED LAKES
     (ALL FLUID FLUXES ARE VOLUMES ADDED TO THE LAKE DURING PRESENT TIME STEP)
     -------------------------------------------------------------------------
 LAKE    STAGE         VOLUME     VOL.CHANGE      PRECIP     EVAPORATION        RUNOFF
   1   114.2298     7.6300E+07   -1.0903E+06    0.0000E+00    1.1100E+06    0.0000E+00
   2   114.2298     3.7111E+07   -6.0572E+05    0.0000E+00    6.1665E+05    0.0000E+00
   3   114.2298     2.2652E+07   -2.8267E+05    0.0000E+00    2.8777E+05    0.0000E+00
   4   114.2298     2.0845E+07   -2.4229E+05    0.0000E+00    2.4666E+05    0.0000E+00

            GROUND WATER            SURFACE WATER        WATER
 LAKE    INFLOW     OUTFLOW      INFLOW     OUTFLOW       USE
   1  2.7680E+04  2.3041E+04  0.0000E+00  0.0000E+00  0.0000E+00
   2  2.7144E+04  6.7197E+03  0.0000E+00  0.0000E+00  0.0000E+00
   3  3.8905E+03  7.9340E+03  0.0000E+00  0.0000E+00  0.0000E+00
   4  2.0508E+04  1.4985E+03  0.0000E+00  0.0000E+00  0.0000E+00

      CONNECTED LAKE   TIME-STEP         STAGE-CHANGE          PERCENT
 LAKE    INFLUX      SURFACE AREA   TIME STEP  CUMULATIVE    DISCREPANCY
   1   1.4992E+04     6.7500E+06  -1.6153E-01 -7.7015E-01       0.000
   2  -9.4900E+03     3.7500E+06  -1.6153E-01 -7.7015E-01       0.000
   3   9.1395E+03     1.7500E+06  -1.6153E-01 -7.7015E-01       0.000
   4  -1.4641E+04     1.5000E+06  -1.6153E-01 -7.7015E-01       0.000
 --------------------------------------------------------------------------------



            CUMULATIVE HYDROLOGIC BUDGET SUMMARIES FOR SIMULATED LAKES
     (ALL FLUID FLUXES ARE SUMS OF VOLUMES ADDED TO THE LAKE SINCE INITIAL TIME)
     ---------------------------------------------------------------------------
 LAKE       PRECIP       EVAP       RUNOFF
   1     0.0000E+00  5.2359E+06  0.0000E+00
   2     0.0000E+00  2.9088E+06  0.0000E+00
   3     0.0000E+00  1.3574E+06  0.0000E+00
   4     0.0000E+00  1.1635E+06  0.0000E+00

            GROUND WATER            SURFACE WATER
 LAKE    INFLOW     OUTFLOW      INFLOW     OUTFLOW
   1  8.0892E+04  8.3707E+04  0.0000E+00  0.0000E+00
   2  7.7201E+04  2.3996E+04  0.0000E+00  0.0000E+00
   3  1.0438E+04  3.3708E+04  0.0000E+00  0.0000E+00
   4  5.5985E+04  7.1431E+03  0.0000E+00  0.0000E+00

         WATER    CONNECTED LAKE   CHANGE       PERCENT
 LAKE     USE         INFLUX       IN VOL.    DISCREPANCY
   1   0.0000E+00   4.0008E+04  -5.1987E+06      0.000
   2   0.0000E+00  -3.2404E+04  -2.8880E+06      0.000
   3   0.0000E+00   3.2945E+04  -1.3478E+06      0.000
   4   0.0000E+00  -4.0549E+04  -1.1552E+06      0.000
 --------------------------------------------------------------------------------


   1 CONNECTED LAKE SET

   4 LAKES:    1  2  3  4
 
 SOLVING FOR HEAD 
    10 ITERATIONS FOR TIME STEP   6 IN STRESS PERIOD    1

 HEAD/DRAWDOWN PRINTOUT FLAG = 0     TOTAL BUDGET PRINTOUT FLAG = 0
 CELL-BY-CELL FLOW TERM FLAG = 1

 OUTPUT FLAGS FOR ALL LAYERS ARE THE SAME:
   HEAD    DRAWDOWN  HEAD  DRAWDOWN
 PRINTOUT  PRINTOUT  SAVE    SAVE
 ----------------------------------
     0         0       0       0

 --------------------------------------------------------------------------------
 TIME STEP   6     NUMBER OF CONNECTED LAKES IS  4     TOTAL AREA =  0.137500000D+08



           SURFACE       SILL   WATER BUDGET  STAGE  CORRECTED   LAKE VOLUME
  LAKE       AREA      ELEVATION   STAGE   CORRECTION  STAGE     CORRECTION
 --------------------------------------------------------------------------------

   1     0.67500E+07 -99999.00    114.06      0.00    114.06     19391.    
 --------------------------------------------------------------------------------

   2     0.37500E+07    112.00    114.07      0.00    114.06    -10674.    
 --------------------------------------------------------------------------------

   3     0.17500E+07    110.00    114.06      0.01    114.06     9954.1    
 --------------------------------------------------------------------------------

   4     0.15000E+07    108.00    114.08     -0.01    114.06    -18671.    


     0  LAKE CELLS ARE DRY.

 PERIOD     1     TIME STEP     6     TIME STEP LENGTH  4.1110E+00
 PERIOD TIME  2.2938E+01     TOTAL SIMULATION TIME  2.2938E+01


                 HYDROLOGIC BUDGET SUMMARIES FOR SIMULATED LAKES
     (ALL FLUID FLUXES ARE VOLUMES ADDED TO THE LAKE DURING PRESENT TIME STEP)
     -------------------------------------------------------------------------
 LAKE    STAGE         VOLUME     VOL.CHANGE      PRECIP     EVAPORATION        RUNOFF
   1   114.0648     7.5186E+07   -1.1141E+06    0.0000E+00    1.1433E+06    0.0000E+00
   2   114.0648     3.6493E+07   -6.1893E+05    0.0000E+00    6.3515E+05    0.0000E+00
   3   114.0648     2.2363E+07   -2.8884E+05    0.0000E+00    2.9640E+05    0.0000E+00
   4   114.0648     2.0597E+07   -2.4758E+05    0.0000E+00    2.5406E+05    0.0000E+00

            GROUND WATER            SURFACE WATER        WATER
 LAKE    INFLOW     OUTFLOW      INFLOW     OUTFLOW       USE
   1  3.4138E+04  2.4380E+04  0.0000E+00  0.0000E+00  0.0000E+00
   2  3.4067E+04  7.1700E+03  0.0000E+00  0.0000E+00  0.0000E+00
   3  5.7816E+03  8.1718E+03  0.0000E+00  0.0000E+00  0.0000E+00
   4  2.6674E+04  1.5195E+03  0.0000E+00  0.0000E+00  0.0000E+00

      CONNECTED LAKE   TIME-STEP         STAGE-CHANGE          PERCENT
 LAKE    INFLUX      SURFACE AREA   TIME STEP  CUMULATIVE    DISCREPANCY
   1   1.9391E+04     6.7500E+06  -1.6505E-01 -9.3521E-01       0.000
   2  -1.0674E+04     3.7500E+06  -1.6505E-01 -9.3521E-01       0.000
   3   9.9541E+03     1.7500E+06  -1.6505E-01 -9.3521E-01       0.000
   4  -1.8671E+04     1.5000E+06  -1.6505E-01 -9.3521E-01      -0.001
 --------------------------------------------------------------------------------



            CUMULATIVE HYDROLOGIC BUDGET SUMMARIES FOR SIMULATED LAKES
     (ALL FLUID FLUXES ARE SUMS OF VOLUMES ADDED TO THE LAKE SINCE INITIAL TIME)
     ---------------------------------------------------------------------------
 LAKE       PRECIP       EVAP       RUNOFF
   1     0.0000E+00  6.3791E+06  0.0000E+00
   2     0.0000E+00  3.5440E+06  0.0000E+00
   3     0.0000E+00  1.6538E+06  0.0000E+00
   4     0.0000E+00  1.4176E+06  0.0000E+00

            GROUND WATER            SURFACE WATER
 LAKE    INFLOW     OUTFLOW      INFLOW     OUTFLOW
   1  1.1503E+05  1.0809E+05  0.0000E+00  0.0000E+00
   2  1.1127E+05  3.1166E+04  0.0000E+00  0.0000E+00
   3  1.6219E+04  4.1880E+04  0.0000E+00  0.0000E+00
   4  8.2658E+04  8.6626E+03  0.0000E+00  0.0000E+00

         WATER    CONNECTED LAKE   CHANGE       PERCENT
 LAKE     USE         INFLUX       IN VOL.    DISCREPANCY
   1   0.0000E+00   5.9399E+04  -6.3128E+06      0.000
   2   0.0000E+00  -4.3078E+04  -3.5069E+06      0.000
   3   0.0000E+00   4.2899E+04  -1.6366E+06      0.000
   4   0.0000E+00  -5.9220E+04  -1.4028E+06      0.000
 --------------------------------------------------------------------------------


   1 CONNECTED LAKE SET

   4 LAKES:    1  2  3  4
 
 SOLVING FOR HEAD 
    10 ITERATIONS FOR TIME STEP   7 IN STRESS PERIOD    1

 HEAD/DRAWDOWN PRINTOUT FLAG = 0     TOTAL BUDGET PRINTOUT FLAG = 0
 CELL-BY-CELL FLOW TERM FLAG = 1

 OUTPUT FLAGS FOR ALL LAYERS ARE THE SAME:
   HEAD    DRAWDOWN  HEAD  DRAWDOWN
 PRINTOUT  PRINTOUT  SAVE    SAVE
 ----------------------------------
     0         0       0       0

 --------------------------------------------------------------------------------
 TIME STEP   7     NUMBER OF CONNECTED LAKES IS  4     TOTAL AREA =  0.137500000D+08



           SURFACE       SILL   WATER BUDGET  STAGE  CORRECTED   LAKE VOLUME
  LAKE       AREA      ELEVATION   STAGE   CORRECTION  STAGE     CORRECTION
 --------------------------------------------------------------------------------

   1     0.67500E+07 -99999.00    113.89      0.00    113.90     24297.    
 --------------------------------------------------------------------------------

   2     0.37500E+07    112.00    113.90      0.00    113.90    -11853.    
 --------------------------------------------------------------------------------

   3     0.17500E+07    110.00    113.89      0.01    113.90     10708.    
 --------------------------------------------------------------------------------

   4     0.15000E+07    108.00    113.91     -0.02    113.90    -23152.    


     0  LAKE CELLS ARE DRY.

 PERIOD     1     TIME STEP     7     TIME STEP LENGTH  4.2343E+00
 PERIOD TIME  2.7173E+01     TOTAL SIMULATION TIME  2.7173E+01


                 HYDROLOGIC BUDGET SUMMARIES FOR SIMULATED LAKES
     (ALL FLUID FLUXES ARE VOLUMES ADDED TO THE LAKE DURING PRESENT TIME STEP)
     -------------------------------------------------------------------------
 LAKE    STAGE         VOLUME     VOL.CHANGE      PRECIP     EVAPORATION        RUNOFF
   1   113.8963     7.4049E+07   -1.1373E+06    0.0000E+00    1.1776E+06    0.0000E+00
   2   113.8963     3.5861E+07   -6.3182E+05    0.0000E+00    6.5421E+05    0.0000E+00
   3   113.8963     2.2068E+07   -2.9486E+05    0.0000E+00    3.0530E+05    0.0000E+00
   4   113.8963     2.0344E+07   -2.5274E+05    0.0000E+00    2.6168E+05    0.0000E+00

            GROUND WATER            SURFACE WATER        WATER
 LAKE    INFLOW     OUTFLOW      INFLOW     OUTFLOW       USE
   1  4.1051E+04  2.5120E+04  0.0000E+00  0.0000E+00  0.0000E+00
   2  4.1676E+04  7.4429E+03  0.0000E+00  0.0000E+00  0.0000E+00
   3  7.9035E+03  8.1743E+03  0.0000E+00  0.0000E+00  0.0000E+00
   4  3.3623E+04  1.5257E+03  0.0000E+00  0.0000E+00  0.0000E+00

      CONNECTED LAKE   TIME-STEP         STAGE-CHANGE          PERCENT
 LAKE    INFLUX      SURFACE AREA   TIME STEP  CUMULATIVE    DISCREPANCY
   1   2.4297E+04     6.7500E+06  -1.6849E-01 -1.1037E+00       0.000
   2  -1.1853E+04     3.7500E+06  -1.6849E-01 -1.1037E+00       0.000
   3   1.0708E+04     1.7500E+06  -1.6849E-01 -1.1037E+00      -0.001
   4  -2.3152E+04     1.5000E+06  -1.6849E-01 -1.1037E+00       0.000
 --------------------------------------------------------------------------------



            CUMULATIVE HYDROLOGIC BUDGET SUMMARIES FOR SIMULATED LAKES
     (ALL FLUID FLUXES ARE SUMS OF VOLUMES ADDED TO THE LAKE SINCE INITIAL TIME)
     ---------------------------------------------------------------------------
 LAKE       PRECIP       EVAP       RUNOFF
   1     0.0000E+00  7.5567E+06  0.0000E+00
   2     0.0000E+00  4.1982E+06  0.0000E+00
   3     0.0000E+00  1.9591E+06  0.0000E+00
   4     0.0000E+00  1.6793E+06  0.0000E+00

            GROUND WATER            SURFACE WATER
 LAKE    INFLOW     OUTFLOW      INFLOW     OUTFLOW
   1  1.5608E+05  1.3321E+05  0.0000E+00  0.0000E+00
   2  1.5294E+05  3.8609E+04  0.0000E+00  0.0000E+00
   3  2.4123E+04  5.0054E+04  0.0000E+00  0.0000E+00
   4  1.1628E+05  1.0188E+04  0.0000E+00  0.0000E+00

         WATER    CONNECTED LAKE   CHANGE       PERCENT
 LAKE     USE         INFLUX       IN VOL.    DISCREPANCY
   1   0.0000E+00   8.3696E+04  -7.4501E+06      0.000
   2   0.0000E+00  -5.4931E+04  -4.1388E+06      0.000
   3   0.0000E+00   5.3607E+04  -1.9315E+06      0.000
   4   0.0000E+00  -8.2372E+04  -1.6555E+06      0.000
 --------------------------------------------------------------------------------


   1 CONNECTED LAKE SET

   4 LAKES:    1  2  3  4
 
 SOLVING FOR HEAD 
    10 ITERATIONS FOR TIME STEP   8 IN STRESS PERIOD    1

 HEAD/DRAWDOWN PRINTOUT FLAG = 0     TOTAL BUDGET PRINTOUT FLAG = 0
 CELL-BY-CELL FLOW TERM FLAG = 1

 OUTPUT FLAGS FOR ALL LAYERS ARE THE SAME:
   HEAD    DRAWDOWN  HEAD  DRAWDOWN
 PRINTOUT  PRINTOUT  SAVE    SAVE
 ----------------------------------
     0         0       0       0

 --------------------------------------------------------------------------------
 TIME STEP   8     NUMBER OF CONNECTED LAKES IS  4     TOTAL AREA =  0.137500000D+08



           SURFACE       SILL   WATER BUDGET  STAGE  CORRECTED   LAKE VOLUME
  LAKE       AREA      ELEVATION   STAGE   CORRECTION  STAGE     CORRECTION
 --------------------------------------------------------------------------------

   1     0.67500E+07 -99999.00    113.72      0.00    113.72     29749.    
 --------------------------------------------------------------------------------

   2     0.37500E+07    112.00    113.73      0.00    113.72    -13094.    
 --------------------------------------------------------------------------------

   3     0.17500E+07    110.00    113.72      0.01    113.72     11466.    
 --------------------------------------------------------------------------------

   4     0.15000E+07    108.00    113.74     -0.02    113.72    -28121.    


     0  LAKE CELLS ARE DRY.

 PERIOD     1     TIME STEP     8     TIME STEP LENGTH  4.3614E+00
 PERIOD TIME  3.1534E+01     TOTAL SIMULATION TIME  3.1534E+01


                 HYDROLOGIC BUDGET SUMMARIES FOR SIMULATED LAKES
     (ALL FLUID FLUXES ARE VOLUMES ADDED TO THE LAKE DURING PRESENT TIME STEP)
     -------------------------------------------------------------------------
 LAKE    STAGE         VOLUME     VOL.CHANGE      PRECIP     EVAPORATION        RUNOFF
   1   113.7244     7.2889E+07   -1.1602E+06    0.0000E+00    1.2129E+06    0.0000E+00
   2   113.7244     3.5216E+07   -6.4455E+05    0.0000E+00    6.7383E+05    0.0000E+00
   3   113.7244     2.1768E+07   -3.0079E+05    0.0000E+00    3.1446E+05    0.0000E+00
   4   113.7244     2.0086E+07   -2.5783E+05    0.0000E+00    2.6953E+05    0.0000E+00

            GROUND WATER            SURFACE WATER        WATER
 LAKE    INFLOW     OUTFLOW      INFLOW     OUTFLOW       USE
   1  4.8349E+04  2.5438E+04  0.0000E+00  0.0000E+00  0.0000E+00
   2  4.9968E+04  7.5882E+03  0.0000E+00  0.0000E+00  0.0000E+00
   3  1.0202E+04  8.0080E+03  0.0000E+00  0.0000E+00  0.0000E+00
   4  4.1344E+04  1.5144E+03  0.0000E+00  0.0000E+00  0.0000E+00

      CONNECTED LAKE   TIME-STEP         STAGE-CHANGE          PERCENT
 LAKE    INFLUX      SURFACE AREA   TIME STEP  CUMULATIVE    DISCREPANCY
   1   2.9749E+04     6.7500E+06  -1.7188E-01 -1.2756E+00       0.000
   2  -1.3094E+04     3.7500E+06  -1.7188E-01 -1.2756E+00       0.000
   3   1.1466E+04     1.7500E+06  -1.7188E-01 -1.2756E+00      -0.001
   4  -2.8121E+04     1.5000E+06  -1.7188E-01 -1.2756E+00       0.000
 --------------------------------------------------------------------------------



            CUMULATIVE HYDROLOGIC BUDGET SUMMARIES FOR SIMULATED LAKES
     (ALL FLUID FLUXES ARE SUMS OF VOLUMES ADDED TO THE LAKE SINCE INITIAL TIME)
     ---------------------------------------------------------------------------
 LAKE       PRECIP       EVAP       RUNOFF
   1     0.0000E+00  8.7696E+06  0.0000E+00
   2     0.0000E+00  4.8720E+06  0.0000E+00
   3     0.0000E+00  2.2736E+06  0.0000E+00
   4     0.0000E+00  1.9488E+06  0.0000E+00

            GROUND WATER            SURFACE WATER
 LAKE    INFLOW     OUTFLOW      INFLOW     OUTFLOW
   1  2.0443E+05  1.5865E+05  0.0000E+00  0.0000E+00
   2  2.0291E+05  4.6197E+04  0.0000E+00  0.0000E+00
   3  3.4325E+04  5.8062E+04  0.0000E+00  0.0000E+00
   4  1.5763E+05  1.1703E+04  0.0000E+00  0.0000E+00

         WATER    CONNECTED LAKE   CHANGE       PERCENT
 LAKE     USE         INFLUX       IN VOL.    DISCREPANCY
   1   0.0000E+00   1.1345E+05  -8.6104E+06      0.000
   2   0.0000E+00  -6.8025E+04  -4.7833E+06      0.000
   3   0.0000E+00   6.5073E+04  -2.2323E+06      0.000
   4   0.0000E+00  -1.1049E+05  -1.9134E+06      0.000
 --------------------------------------------------------------------------------


   1 CONNECTED LAKE SET

   4 LAKES:    1  2  3  4
 
 SOLVING FOR HEAD 
    10 ITERATIONS FOR TIME STEP   9 IN STRESS PERIOD    1

 HEAD/DRAWDOWN PRINTOUT FLAG = 0     TOTAL BUDGET PRINTOUT FLAG = 0
 CELL-BY-CELL FLOW TERM FLAG = 1

 OUTPUT FLAGS FOR ALL LAYERS ARE THE SAME:
   HEAD    DRAWDOWN  HEAD  DRAWDOWN
 PRINTOUT  PRINTOUT  SAVE    SAVE
 ----------------------------------
     0         0       0       0

 --------------------------------------------------------------------------------
 TIME STEP   9     NUMBER OF CONNECTED LAKES IS  4     TOTAL AREA =  0.137500000D+08



           SURFACE       SILL   WATER BUDGET  STAGE  CORRECTED   LAKE VOLUME
  LAKE       AREA      ELEVATION   STAGE   CORRECTION  STAGE     CORRECTION
 --------------------------------------------------------------------------------

   1     0.67500E+07 -99999.00    113.54      0.01    113.55     35783.    
 --------------------------------------------------------------------------------

   2     0.37500E+07    112.00    113.55      0.00    113.55    -14442.    
 --------------------------------------------------------------------------------

   3     0.17500E+07    110.00    113.54      0.01    113.55     12275.    
 --------------------------------------------------------------------------------

   4     0.15000E+07    108.00    113.57     -0.02    113.55    -33616.    


     0  LAKE CELLS ARE DRY.

 PERIOD     1     TIME STEP     9     TIME STEP LENGTH  4.4922E+00
 PERIOD TIME  3.6026E+01     TOTAL SIMULATION TIME  3.6026E+01


                 HYDROLOGIC BUDGET SUMMARIES FOR SIMULATED LAKES
     (ALL FLUID FLUXES ARE VOLUMES ADDED TO THE LAKE DURING PRESENT TIME STEP)
     -------------------------------------------------------------------------
 LAKE    STAGE         VOLUME     VOL.CHANGE      PRECIP     EVAPORATION        RUNOFF
   1   113.5492     7.1706E+07   -1.1829E+06    0.0000E+00    1.2493E+06    0.0000E+00
   2   113.5492     3.4559E+07   -6.5711E+05    0.0000E+00    6.9405E+05    0.0000E+00
   3   113.5492     2.1461E+07   -3.0666E+05    0.0000E+00    3.2389E+05    0.0000E+00
   4   113.5492     1.9824E+07   -2.6285E+05    0.0000E+00    2.7762E+05    0.0000E+00

            GROUND WATER            SURFACE WATER        WATER
 LAKE    INFLOW     OUTFLOW      INFLOW     OUTFLOW       USE
   1  5.6052E+04  2.5405E+04  0.0000E+00  0.0000E+00  0.0000E+00
   2  5.9005E+04  7.6261E+03  0.0000E+00  0.0000E+00  0.0000E+00
   3  1.2691E+04  7.7370E+03  0.0000E+00  0.0000E+00  0.0000E+00
   4  4.9868E+04  1.4843E+03  0.0000E+00  0.0000E+00  0.0000E+00

      CONNECTED LAKE   TIME-STEP         STAGE-CHANGE          PERCENT
 LAKE    INFLUX      SURFACE AREA   TIME STEP  CUMULATIVE    DISCREPANCY
   1   3.5783E+04     6.7500E+06  -1.7523E-01 -1.4508E+00       0.000
   2  -1.4442E+04     3.7500E+06  -1.7523E-01 -1.4508E+00       0.000
   3   1.2275E+04     1.7500E+06  -1.7523E-01 -1.4508E+00       0.000
   4  -3.3616E+04     1.5000E+06  -1.7523E-01 -1.4508E+00       0.000
 --------------------------------------------------------------------------------



            CUMULATIVE HYDROLOGIC BUDGET SUMMARIES FOR SIMULATED LAKES
     (ALL FLUID FLUXES ARE SUMS OF VOLUMES ADDED TO THE LAKE SINCE INITIAL TIME)
     ---------------------------------------------------------------------------
 LAKE       PRECIP       EVAP       RUNOFF
   1     0.0000E+00  1.0019E+07  0.0000E+00
   2     0.0000E+00  5.5661E+06  0.0000E+00
   3     0.0000E+00  2.5975E+06  0.0000E+00
   4     0.0000E+00  2.2264E+06  0.0000E+00

            GROUND WATER            SURFACE WATER
 LAKE    INFLOW     OUTFLOW      INFLOW     OUTFLOW
   1  2.6048E+05  1.8405E+05  0.0000E+00  0.0000E+00
   2  2.6192E+05  5.3823E+04  0.0000E+00  0.0000E+00
   3  4.7016E+04  6.5799E+04  0.0000E+00  0.0000E+00
   4  2.0749E+05  1.3187E+04  0.0000E+00  0.0000E+00

         WATER    CONNECTED LAKE   CHANGE       PERCENT
 LAKE     USE         INFLUX       IN VOL.    DISCREPANCY
   1   0.0000E+00   1.4923E+05  -9.7932E+06      0.000
   2   0.0000E+00  -8.2467E+04  -5.4404E+06      0.000
   3   0.0000E+00   7.7348E+04  -2.5389E+06      0.000
   4   0.0000E+00  -1.4411E+05  -2.1762E+06      0.000
 --------------------------------------------------------------------------------


   1 CONNECTED LAKE SET

   4 LAKES:    1  2  3  4
 
 SOLVING FOR HEAD 
    10 ITERATIONS FOR TIME STEP  10 IN STRESS PERIOD    1

 HEAD/DRAWDOWN PRINTOUT FLAG = 1     TOTAL BUDGET PRINTOUT FLAG = 1
 CELL-BY-CELL FLOW TERM FLAG = 1

 OUTPUT FLAGS FOR EACH LAYER:
          HEAD    DRAWDOWN  HEAD  DRAWDOWN
 LAYER  PRINTOUT  PRINTOUT  SAVE    SAVE
 -----------------------------------------
    1       0         0       0       0
    2       0         0       0       0
    3       0         0       0       0
    4       0         0       0       0
    5       1         0       0       0

 --------------------------------------------------------------------------------
 TIME STEP  10     NUMBER OF CONNECTED LAKES IS  4     TOTAL AREA =  0.137500000D+08



           SURFACE       SILL   WATER BUDGET  STAGE  CORRECTED   LAKE VOLUME
  LAKE       AREA      ELEVATION   STAGE   CORRECTION  STAGE     CORRECTION
 --------------------------------------------------------------------------------

   1     0.67500E+07 -99999.00    113.36      0.01    113.37     42465.    
 --------------------------------------------------------------------------------

   2     0.37500E+07    112.00    113.37      0.00    113.37    -15964.    
 --------------------------------------------------------------------------------

   3     0.17500E+07    110.00    113.36      0.01    113.37     13166.    
 --------------------------------------------------------------------------------

   4     0.15000E+07    108.00    113.40     -0.03    113.37    -39667.    


     0  LAKE CELLS ARE DRY.

 PERIOD     1     TIME STEP    10     TIME STEP LENGTH  4.6270E+00
 PERIOD TIME  4.0653E+01     TOTAL SIMULATION TIME  4.0653E+01


                 HYDROLOGIC BUDGET SUMMARIES FOR SIMULATED LAKES
     (ALL FLUID FLUXES ARE VOLUMES ADDED TO THE LAKE DURING PRESENT TIME STEP)
     -------------------------------------------------------------------------
 LAKE    STAGE         VOLUME     VOL.CHANGE      PRECIP     EVAPORATION        RUNOFF
   1   113.3706     7.0501E+07   -1.2053E+06    0.0000E+00    1.2868E+06    0.0000E+00
   2   113.3706     3.3890E+07   -6.6956E+05    0.0000E+00    7.1487E+05    0.0000E+00
   3   113.3706     2.1148E+07   -3.1247E+05    0.0000E+00    3.3361E+05    0.0000E+00
   4   113.3706     1.9556E+07   -2.6783E+05    0.0000E+00    2.8595E+05    0.0000E+00

            GROUND WATER            SURFACE WATER        WATER
 LAKE    INFLOW     OUTFLOW      INFLOW     OUTFLOW       USE
   1  6.4138E+04  2.5102E+04  0.0000E+00  0.0000E+00  0.0000E+00
   2  6.8854E+04  7.5803E+03  0.0000E+00  0.0000E+00  0.0000E+00
   3  1.5372E+04  7.4007E+03  0.0000E+00  0.0000E+00  0.0000E+00
   4  5.9225E+04  1.4401E+03  0.0000E+00  0.0000E+00  0.0000E+00

      CONNECTED LAKE   TIME-STEP         STAGE-CHANGE          PERCENT
 LAKE    INFLUX      SURFACE AREA   TIME STEP  CUMULATIVE    DISCREPANCY
   1   4.2465E+04     6.7500E+06  -1.7855E-01 -1.6294E+00       0.000
   2  -1.5964E+04     3.7500E+06  -1.7855E-01 -1.6294E+00       0.000
   3   1.3166E+04     1.7500E+06  -1.7855E-01 -1.6294E+00       0.000
   4  -3.9667E+04     1.5000E+06  -1.7855E-01 -1.6294E+00       0.000
 --------------------------------------------------------------------------------



            CUMULATIVE HYDROLOGIC BUDGET SUMMARIES FOR SIMULATED LAKES
     (ALL FLUID FLUXES ARE SUMS OF VOLUMES ADDED TO THE LAKE SINCE INITIAL TIME)
     ---------------------------------------------------------------------------
 LAKE       PRECIP       EVAP       RUNOFF
   1     0.0000E+00  1.1306E+07  0.0000E+00
   2     0.0000E+00  6.2809E+06  0.0000E+00
   3     0.0000E+00  2.9311E+06  0.0000E+00
   4     0.0000E+00  2.5124E+06  0.0000E+00

            GROUND WATER            SURFACE WATER
 LAKE    INFLOW     OUTFLOW      INFLOW     OUTFLOW
   1  3.2462E+05  2.0915E+05  0.0000E+00  0.0000E+00
   2  3.3077E+05  6.1403E+04  0.0000E+00  0.0000E+00
   3  6.2388E+04  7.3200E+04  0.0000E+00  0.0000E+00
   4  2.6672E+05  1.4627E+04  0.0000E+00  0.0000E+00

         WATER    CONNECTED LAKE   CHANGE       PERCENT
 LAKE     USE         INFLUX       IN VOL.    DISCREPANCY
   1   0.0000E+00   1.9169E+05  -1.0998E+07      0.000
   2   0.0000E+00  -9.8432E+04  -6.1100E+06      0.000
   3   0.0000E+00   9.0514E+04  -2.8514E+06      0.000
   4   0.0000E+00  -1.8378E+05  -2.4441E+06      0.000
 --------------------------------------------------------------------------------


   1 CONNECTED LAKE SET

   4 LAKES:    1  2  3  4
1
              HEAD IN LAYER   5 AT END OF TIME STEP  10 IN STRESS PERIOD    1
  ---------------------------------------------------------------------------

          1      2      3      4      5      6      7      8      9     10
 .........................................................................
   1   160.0  158.9  157.3  155.8  154.6  153.9  153.1  152.3  151.5  150.8
   2   160.0  143.4  133.2  130.7  130.0  129.7  129.3  129.0  128.7  128.3
   3   160.0  134.3  120.1  117.6  117.3  117.2  117.2  117.1  117.1  117.0
   4   160.0  132.6  117.9  115.5  115.3  115.2  115.2  115.2  115.2  115.2
   5   160.0  132.4  117.7  115.3  115.0  115.0  115.0  115.0  115.0  115.0
   6   160.0  132.4  117.6  115.2  114.8  114.8  114.7  114.7  114.7  114.7
   7   160.0  132.4  117.6  115.0  113.5  113.4  113.4  113.3  113.4  113.4
   8   160.0  132.4  117.6  115.0  113.4  113.4  113.3  112.7  113.3  113.4
   9   160.0  132.4  117.6  115.0  113.4  113.4  113.4  113.3  113.4  113.4
  10   160.0  132.4  117.6  115.0  113.4  113.4  113.3  112.7  113.3  113.4
  11   160.0  132.4  117.6  115.0  113.5  113.4  113.4  113.3  113.4  113.4
  12   160.0  132.4  117.6  115.2  114.8  114.8  114.7  114.7  114.7  114.7
  13   160.0  132.4  117.7  115.3  115.0  115.0  115.0  115.0  115.0  115.0
  14   160.0  132.6  117.9  115.5  115.3  115.2  115.2  115.2  115.2  115.2
  15   160.0  134.3  120.1  117.6  117.3  117.2  117.2  117.1  117.1  117.0
  16   160.0  143.4  133.2  130.7  130.0  129.7  129.3  129.0  128.7  128.3
  17   160.0  158.9  157.3  155.8  154.6  153.9  153.1  152.3  151.5  150.8
1
              HEAD IN LAYER   5 AT END OF TIME STEP  10 IN STRESS PERIOD    1
  ---------------------------------------------------------------------------

         11     12     13     14     15     16     17     18     19     20
 .........................................................................
   1   150.0  149.2  148.5  147.7  146.9  146.1  145.4  144.6  143.9  142.7
   2   128.0  127.7  127.4  127.1  126.7  126.4  126.1  125.9  125.7  126.0
   3   117.0  116.9  116.9  116.8  116.8  116.7  116.7  116.7  116.8  117.8
   4   115.2  115.2  115.2  115.2  115.2  115.2  115.2  115.2  115.4  116.5
   5   115.0  115.0  115.0  115.0  115.0  115.0  115.0  115.1  115.3  116.3
   6   114.7  114.7  114.8  114.8  114.9  114.9  114.9  115.0  115.2  116.3
   7   113.4  113.4  113.4  114.0  114.3  114.4  114.3  114.5  114.7  116.2
   8   113.4  113.4  113.3  112.9  113.4  113.4  112.9  113.4  113.5  116.1
   9   113.4  113.4  113.4  113.3  113.4  113.4  113.3  113.4  113.5  116.0
  10   113.4  113.4  113.3  112.9  113.4  113.4  112.9  113.4  113.5  116.1
  11   113.4  113.4  113.4  114.0  114.3  114.4  114.3  114.5  114.7  116.2
  12   114.7  114.7  114.8  114.8  114.9  114.9  114.9  115.0  115.2  116.3
  13   115.0  115.0  115.0  115.0  115.0  115.0  115.0  115.1  115.3  116.3
  14   115.2  115.2  115.2  115.2  115.2  115.2  115.2  115.2  115.4  116.5
  15   117.0  116.9  116.9  116.8  116.8  116.7  116.7  116.7  116.8  117.8
  16   128.0  127.7  127.4  127.1  126.7  126.4  126.1  125.9  125.7  126.0
  17   150.0  149.2  148.5  147.7  146.9  146.1  145.4  144.6  143.9  142.7
1
              HEAD IN LAYER   5 AT END OF TIME STEP  10 IN STRESS PERIOD    1
  ---------------------------------------------------------------------------

         21     22
 .................
   1   141.1  140.0
   2   130.0  140.0
   3   125.0  140.0
   4   124.1  140.0
   5   124.0  140.0
   6   124.0  140.0
   7   124.0  140.0
   8   123.9  140.0
   9   123.9  140.0
  10   123.9  140.0
  11   124.0  140.0
  12   124.0  140.0
  13   124.0  140.0
  14   124.1  140.0
  15   125.0  140.0
  16   130.0  140.0
  17   141.1  140.0
1
  VOLUMETRIC BUDGET FOR ENTIRE MODEL AT END OF TIME STEP 10 IN STRESS PERIOD   1
  ------------------------------------------------------------------------------

     CUMULATIVE VOLUMES      L**3       RATES FOR THIS TIME STEP      L**3/T
     ------------------                 ------------------------

           IN:                                      IN:
           ---                                      ---
             STORAGE =     1804948.3750               STORAGE =       47221.5586
       CONSTANT HEAD =   149565360.0000         CONSTANT HEAD =     3182427.5000
                  ET =           0.0000                    ET =           0.0000
            RECHARGE =           0.0000              RECHARGE =           0.0000
     SPECIFIED FLOWS =           0.0000       SPECIFIED FLOWS =           0.0000
       LAKE  SEEPAGE =      358383.0000         LAKE  SEEPAGE =        8974.1943

            TOTAL IN =   151728688.0000              TOTAL IN =     3238623.2500

          OUT:                                     OUT:
          ----                                     ----
             STORAGE =   148842464.0000               STORAGE =     3135314.5000
       CONSTANT HEAD =           0.0000         CONSTANT HEAD =           0.0000
                  ET =     1903916.7500                    ET =       58509.8125
            RECHARGE =           0.0000              RECHARGE =           0.0000
     SPECIFIED FLOWS =           0.0000       SPECIFIED FLOWS =           0.0000
       LAKE  SEEPAGE =      984498.8750         LAKE  SEEPAGE =       44864.7266

           TOTAL OUT =   151730880.0000             TOTAL OUT =     3238689.0000

            IN - OUT =       -2192.0000              IN - OUT =         -65.7500

 PERCENT DISCREPANCY =           0.00     PERCENT DISCREPANCY =           0.00






          TIME SUMMARY AT END OF TIME STEP  10 IN STRESS PERIOD    1
                    SECONDS     MINUTES      HOURS       DAYS        YEARS
                    -----------------------------------------------------------
   TIME STEP LENGTH 3.99772E+05  6662.9      111.05      4.6270     1.26680E-02
 STRESS PERIOD TIME 3.51244E+06  58541.      975.68      40.653     0.11130    
         TOTAL TIME 3.51244E+06  58541.      975.68      40.653     0.11130    
1
 
 SOLVING FOR HEAD 
    10 ITERATIONS FOR TIME STEP  11 IN STRESS PERIOD    1

 HEAD/DRAWDOWN PRINTOUT FLAG = 0     TOTAL BUDGET PRINTOUT FLAG = 0
 CELL-BY-CELL FLOW TERM FLAG = 1

 OUTPUT FLAGS FOR ALL LAYERS ARE THE SAME:
   HEAD    DRAWDOWN  HEAD  DRAWDOWN
 PRINTOUT  PRINTOUT  SAVE    SAVE
 ----------------------------------
     0         0       0       0

 --------------------------------------------------------------------------------
 TIME STEP  11     NUMBER OF CONNECTED LAKES IS  4     TOTAL AREA =  0.137500000D+08



           SURFACE       SILL   WATER BUDGET  STAGE  CORRECTED   LAKE VOLUME
  LAKE       AREA      ELEVATION   STAGE   CORRECTION  STAGE     CORRECTION
 --------------------------------------------------------------------------------

   1     0.67500E+07 -99999.00    113.18      0.01    113.19     49850.    
 --------------------------------------------------------------------------------

   2     0.37500E+07    112.00    113.19      0.00    113.19    -17709.    
 --------------------------------------------------------------------------------

   3     0.17500E+07    110.00    113.18      0.01    113.19     14169.    
 --------------------------------------------------------------------------------

   4     0.15000E+07    108.00    113.22     -0.03    113.19    -46310.    


     0  LAKE CELLS ARE DRY.

 PERIOD     1     TIME STEP    11     TIME STEP LENGTH  4.7658E+00
 PERIOD TIME  4.5419E+01     TOTAL SIMULATION TIME  4.5419E+01


                 HYDROLOGIC BUDGET SUMMARIES FOR SIMULATED LAKES
     (ALL FLUID FLUXES ARE VOLUMES ADDED TO THE LAKE DURING PRESENT TIME STEP)
     -------------------------------------------------------------------------
 LAKE    STAGE         VOLUME     VOL.CHANGE      PRECIP     EVAPORATION        RUNOFF
   1   113.1888     6.9273E+07   -1.2275E+06    0.0000E+00    1.3254E+06    0.0000E+00
   2   113.1888     3.3208E+07   -6.8190E+05    0.0000E+00    7.3632E+05    0.0000E+00
   3   113.1888     2.0830E+07   -3.1822E+05    0.0000E+00    3.4361E+05    0.0000E+00
   4   113.1888     1.9283E+07   -2.7276E+05    0.0000E+00    2.9453E+05    0.0000E+00

            GROUND WATER            SURFACE WATER        WATER
 LAKE    INFLOW     OUTFLOW      INFLOW     OUTFLOW       USE
   1  7.2626E+04  2.4567E+04  0.0000E+00  0.0000E+00  0.0000E+00
   2  7.9593E+04  7.4683E+03  0.0000E+00  0.0000E+00  0.0000E+00
   3  1.8214E+04  6.9910E+03  0.0000E+00  0.0000E+00  0.0000E+00
   4  6.9459E+04  1.3853E+03  0.0000E+00  0.0000E+00  0.0000E+00

      CONNECTED LAKE   TIME-STEP         STAGE-CHANGE          PERCENT
 LAKE    INFLUX      SURFACE AREA   TIME STEP  CUMULATIVE    DISCREPANCY
   1   4.9850E+04     6.7500E+06  -1.8184E-01 -1.8112E+00       0.000
   2  -1.7709E+04     3.7500E+06  -1.8184E-01 -1.8112E+00       0.000
   3   1.4169E+04     1.7500E+06  -1.8184E-01 -1.8112E+00       0.000
   4  -4.6310E+04     1.5000E+06  -1.8184E-01 -1.8112E+00       0.001
 --------------------------------------------------------------------------------



            CUMULATIVE HYDROLOGIC BUDGET SUMMARIES FOR SIMULATED LAKES
     (ALL FLUID FLUXES ARE SUMS OF VOLUMES ADDED TO THE LAKE SINCE INITIAL TIME)
     ---------------------------------------------------------------------------
 LAKE       PRECIP       EVAP       RUNOFF
   1     0.0000E+00  1.2631E+07  0.0000E+00
   2     0.0000E+00  7.0172E+06  0.0000E+00
   3     0.0000E+00  3.2747E+06  0.0000E+00
   4     0.0000E+00  2.8069E+06  0.0000E+00

            GROUND WATER            SURFACE WATER
 LAKE    INFLOW     OUTFLOW      INFLOW     OUTFLOW
   1  3.9725E+05  2.3372E+05  0.0000E+00  0.0000E+00
   2  4.1036E+05  6.8872E+04  0.0000E+00  0.0000E+00
   3  8.0602E+04  8.0191E+04  0.0000E+00  0.0000E+00
   4  3.3618E+05  1.6012E+04  0.0000E+00  0.0000E+00

         WATER    CONNECTED LAKE   CHANGE       PERCENT
 LAKE     USE         INFLUX       IN VOL.    DISCREPANCY
   1   0.0000E+00   2.4154E+05  -1.2226E+07      0.000
   2   0.0000E+00  -1.1614E+05  -6.7919E+06      0.000
   3   0.0000E+00   1.0468E+05  -3.1696E+06      0.000
   4   0.0000E+00  -2.3008E+05  -2.7168E+06      0.000
 --------------------------------------------------------------------------------


   1 CONNECTED LAKE SET

   4 LAKES:    1  2  3  4
 
 SOLVING FOR HEAD 
    10 ITERATIONS FOR TIME STEP  12 IN STRESS PERIOD    1

 HEAD/DRAWDOWN PRINTOUT FLAG = 0     TOTAL BUDGET PRINTOUT FLAG = 0
 CELL-BY-CELL FLOW TERM FLAG = 1

 OUTPUT FLAGS FOR ALL LAYERS ARE THE SAME:
   HEAD    DRAWDOWN  HEAD  DRAWDOWN
 PRINTOUT  PRINTOUT  SAVE    SAVE
 ----------------------------------
     0         0       0       0

 --------------------------------------------------------------------------------
 TIME STEP  12     NUMBER OF CONNECTED LAKES IS  4     TOTAL AREA =  0.137500000D+08



           SURFACE       SILL   WATER BUDGET  STAGE  CORRECTED   LAKE VOLUME
  LAKE       AREA      ELEVATION   STAGE   CORRECTION  STAGE     CORRECTION
 --------------------------------------------------------------------------------

   1     0.67500E+07 -99999.00    113.00      0.01    113.00     58013.    
 --------------------------------------------------------------------------------

   2     0.37500E+07    112.00    113.01     -0.01    113.00    -19731.    
 --------------------------------------------------------------------------------

   3     0.17500E+07    110.00    112.99      0.01    113.00     15295.    
 --------------------------------------------------------------------------------

   4     0.15000E+07    108.00    113.04     -0.04    113.00    -53578.    


     0  LAKE CELLS ARE DRY.

 PERIOD     1     TIME STEP    12     TIME STEP LENGTH  4.9088E+00
 PERIOD TIME  5.0328E+01     TOTAL SIMULATION TIME  5.0328E+01


                 HYDROLOGIC BUDGET SUMMARIES FOR SIMULATED LAKES
     (ALL FLUID FLUXES ARE VOLUMES ADDED TO THE LAKE DURING PRESENT TIME STEP)
     -------------------------------------------------------------------------
 LAKE    STAGE         VOLUME     VOL.CHANGE      PRECIP     EVAPORATION        RUNOFF
   1   113.0037     6.8024E+07   -1.2495E+06    0.0000E+00    1.3651E+06    0.0000E+00
   2   113.0037     3.2513E+07   -6.9414E+05    0.0000E+00    7.5840E+05    0.0000E+00
   3   113.0037     2.0506E+07   -3.2394E+05    0.0000E+00    3.5392E+05    0.0000E+00
   4   113.0037     1.9005E+07   -2.7766E+05    0.0000E+00    3.0336E+05    0.0000E+00

            GROUND WATER            SURFACE WATER        WATER
 LAKE    INFLOW     OUTFLOW      INFLOW     OUTFLOW       USE
   1  8.1535E+04  2.3909E+04  0.0000E+00  0.0000E+00  0.0000E+00
   2  9.1323E+04  7.3295E+03  0.0000E+00  0.0000E+00  0.0000E+00
   3  2.1203E+04  6.5101E+03  0.0000E+00  0.0000E+00  0.0000E+00
   4  8.0605E+04  1.3221E+03  0.0000E+00  0.0000E+00  0.0000E+00

      CONNECTED LAKE   TIME-STEP         STAGE-CHANGE          PERCENT
 LAKE    INFLUX      SURFACE AREA   TIME STEP  CUMULATIVE    DISCREPANCY
   1   5.8013E+04     6.7500E+06  -1.8511E-01 -1.9963E+00       0.000
   2  -1.9731E+04     3.7500E+06  -1.8511E-01 -1.9963E+00       0.000
   3   1.5295E+04     1.7500E+06  -1.8511E-01 -1.9963E+00       0.001
   4  -5.3578E+04     1.5000E+06  -1.8511E-01 -1.9963E+00       0.000
 --------------------------------------------------------------------------------



            CUMULATIVE HYDROLOGIC BUDGET SUMMARIES FOR SIMULATED LAKES
     (ALL FLUID FLUXES ARE SUMS OF VOLUMES ADDED TO THE LAKE SINCE INITIAL TIME)
     ---------------------------------------------------------------------------
 LAKE       PRECIP       EVAP       RUNOFF
   1     0.0000E+00  1.3996E+07  0.0000E+00
   2     0.0000E+00  7.7756E+06  0.0000E+00
   3     0.0000E+00  3.6286E+06  0.0000E+00
   4     0.0000E+00  3.1103E+06  0.0000E+00

            GROUND WATER            SURFACE WATER
 LAKE    INFLOW     OUTFLOW      INFLOW     OUTFLOW
   1  4.7878E+05  2.5763E+05  0.0000E+00  0.0000E+00
   2  5.0169E+05  7.6201E+04  0.0000E+00  0.0000E+00
   3  1.0181E+05  8.6701E+04  0.0000E+00  0.0000E+00
   4  4.1678E+05  1.7335E+04  0.0000E+00  0.0000E+00

         WATER    CONNECTED LAKE   CHANGE       PERCENT
 LAKE     USE         INFLUX       IN VOL.    DISCREPANCY
   1   0.0000E+00   2.9956E+05  -1.3475E+07      0.000
   2   0.0000E+00  -1.3587E+05  -7.4860E+06      0.000
   3   0.0000E+00   1.1998E+05  -3.4936E+06      0.000
   4   0.0000E+00  -2.8366E+05  -2.9945E+06      0.000
 --------------------------------------------------------------------------------


   1 CONNECTED LAKE SET

   4 LAKES:    1  2  3  4
 
 SOLVING FOR HEAD 
    10 ITERATIONS FOR TIME STEP  13 IN STRESS PERIOD    1

 HEAD/DRAWDOWN PRINTOUT FLAG = 0     TOTAL BUDGET PRINTOUT FLAG = 0
 CELL-BY-CELL FLOW TERM FLAG = 1

 OUTPUT FLAGS FOR ALL LAYERS ARE THE SAME:
   HEAD    DRAWDOWN  HEAD  DRAWDOWN
 PRINTOUT  PRINTOUT  SAVE    SAVE
 ----------------------------------
     0         0       0       0

 --------------------------------------------------------------------------------
 TIME STEP  13     NUMBER OF CONNECTED LAKES IS  4     TOTAL AREA =  0.137500000D+08



           SURFACE       SILL   WATER BUDGET  STAGE  CORRECTED   LAKE VOLUME
  LAKE       AREA      ELEVATION   STAGE   CORRECTION  STAGE     CORRECTION
 --------------------------------------------------------------------------------

   1     0.67500E+07 -99999.00    112.81      0.01    112.82     67024.    
 --------------------------------------------------------------------------------

   2     0.37500E+07    112.00    112.82     -0.01    112.82    -22097.    
 --------------------------------------------------------------------------------

   3     0.17500E+07    110.00    112.81      0.01    112.82     16569.    
 --------------------------------------------------------------------------------

   4     0.15000E+07    108.00    112.86     -0.04    112.82    -61496.    


     0  LAKE CELLS ARE DRY.

 PERIOD     1     TIME STEP    13     TIME STEP LENGTH  5.0560E+00
 PERIOD TIME  5.5384E+01     TOTAL SIMULATION TIME  5.5384E+01


                 HYDROLOGIC BUDGET SUMMARIES FOR SIMULATED LAKES
     (ALL FLUID FLUXES ARE VOLUMES ADDED TO THE LAKE DURING PRESENT TIME STEP)
     -------------------------------------------------------------------------
 LAKE    STAGE         VOLUME     VOL.CHANGE      PRECIP     EVAPORATION        RUNOFF
   1   112.8154     6.6752E+07   -1.2712E+06    0.0000E+00    1.4061E+06    0.0000E+00
   2   112.8154     3.1807E+07   -7.0625E+05    0.0000E+00    7.8116E+05    0.0000E+00
   3   112.8154     2.0177E+07   -3.2959E+05    0.0000E+00    3.6454E+05    0.0000E+00
   4   112.8154     1.8723E+07   -2.8250E+05    0.0000E+00    3.1246E+05    0.0000E+00

            GROUND WATER            SURFACE WATER        WATER
 LAKE    INFLOW     OUTFLOW      INFLOW     OUTFLOW       USE
   1  9.0908E+04  2.3096E+04  0.0000E+00  0.0000E+00  0.0000E+00
   2  1.0418E+05  7.1805E+03  0.0000E+00  0.0000E+00  0.0000E+00
   3  2.4352E+04  5.9650E+03  0.0000E+00  0.0000E+00  0.0000E+00
   4  9.2711E+04  1.2524E+03  0.0000E+00  0.0000E+00  0.0000E+00

      CONNECTED LAKE   TIME-STEP         STAGE-CHANGE          PERCENT
 LAKE    INFLUX      SURFACE AREA   TIME STEP  CUMULATIVE    DISCREPANCY
   1   6.7024E+04     6.7500E+06  -1.8833E-01 -2.1846E+00       0.000
   2  -2.2097E+04     3.7500E+06  -1.8833E-01 -2.1846E+00       0.000
   3   1.6569E+04     1.7500E+06  -1.8833E-01 -2.1846E+00       0.001
   4  -6.1496E+04     1.5000E+06  -1.8833E-01 -2.1846E+00       0.000
 --------------------------------------------------------------------------------



            CUMULATIVE HYDROLOGIC BUDGET SUMMARIES FOR SIMULATED LAKES
     (ALL FLUID FLUXES ARE SUMS OF VOLUMES ADDED TO THE LAKE SINCE INITIAL TIME)
     ---------------------------------------------------------------------------
 LAKE       PRECIP       EVAP       RUNOFF
   1     0.0000E+00  1.5402E+07  0.0000E+00
   2     0.0000E+00  8.5568E+06  0.0000E+00
   3     0.0000E+00  3.9932E+06  0.0000E+00
   4     0.0000E+00  3.4227E+06  0.0000E+00

            GROUND WATER            SURFACE WATER
 LAKE    INFLOW     OUTFLOW      INFLOW     OUTFLOW
   1  5.6969E+05  2.8073E+05  0.0000E+00  0.0000E+00
   2  6.0587E+05  8.3382E+04  0.0000E+00  0.0000E+00
   3  1.2616E+05  9.2666E+04  0.0000E+00  0.0000E+00
   4  5.0949E+05  1.8587E+04  0.0000E+00  0.0000E+00

         WATER    CONNECTED LAKE   CHANGE       PERCENT
 LAKE     USE         INFLUX       IN VOL.    DISCREPANCY
   1   0.0000E+00   3.6658E+05  -1.4747E+07      0.000
   2   0.0000E+00  -1.5797E+05  -8.1923E+06      0.000
   3   0.0000E+00   1.3655E+05  -3.8231E+06      0.000
   4   0.0000E+00  -3.4516E+05  -3.2770E+06      0.000
 --------------------------------------------------------------------------------


   1 CONNECTED LAKE SET

   4 LAKES:    1  2  3  4
 
 SOLVING FOR HEAD 
    10 ITERATIONS FOR TIME STEP  14 IN STRESS PERIOD    1

 HEAD/DRAWDOWN PRINTOUT FLAG = 0     TOTAL BUDGET PRINTOUT FLAG = 0
 CELL-BY-CELL FLOW TERM FLAG = 1

 OUTPUT FLAGS FOR ALL LAYERS ARE THE SAME:
   HEAD    DRAWDOWN  HEAD  DRAWDOWN
 PRINTOUT  PRINTOUT  SAVE    SAVE
 ----------------------------------
     0         0       0       0

 --------------------------------------------------------------------------------
 TIME STEP  14     NUMBER OF CONNECTED LAKES IS  4     TOTAL AREA =  0.137500000D+08



           SURFACE       SILL   WATER BUDGET  STAGE  CORRECTED   LAKE VOLUME
  LAKE       AREA      ELEVATION   STAGE   CORRECTION  STAGE     CORRECTION
 --------------------------------------------------------------------------------

   1     0.67500E+07 -99999.00    112.61      0.01    112.62     76923.    
 --------------------------------------------------------------------------------

   2     0.37500E+07    112.00    112.63     -0.01    112.62    -24863.    
 --------------------------------------------------------------------------------

   3     0.17500E+07    110.00    112.61      0.01    112.62     18002.    
 --------------------------------------------------------------------------------

   4     0.15000E+07    108.00    112.67     -0.05    112.62    -70062.    


     0  LAKE CELLS ARE DRY.

 PERIOD     1     TIME STEP    14     TIME STEP LENGTH  5.2077E+00
 PERIOD TIME  6.0592E+01     TOTAL SIMULATION TIME  6.0592E+01


                 HYDROLOGIC BUDGET SUMMARIES FOR SIMULATED LAKES
     (ALL FLUID FLUXES ARE VOLUMES ADDED TO THE LAKE DURING PRESENT TIME STEP)
     -------------------------------------------------------------------------
 LAKE    STAGE         VOLUME     VOL.CHANGE      PRECIP     EVAPORATION        RUNOFF
   1   112.6238     6.5460E+07   -1.2928E+06    0.0000E+00    1.4483E+06    0.0000E+00
   2   112.6238     3.1089E+07   -7.1823E+05    0.0000E+00    8.0459E+05    0.0000E+00
   3   112.6238     1.9841E+07   -3.3517E+05    0.0000E+00    3.7548E+05    0.0000E+00
   4   112.6238     1.8436E+07   -2.8729E+05    0.0000E+00    3.2184E+05    0.0000E+00

            GROUND WATER            SURFACE WATER        WATER
 LAKE    INFLOW     OUTFLOW      INFLOW     OUTFLOW       USE
   1  1.0069E+05  2.2144E+04  0.0000E+00  0.0000E+00  0.0000E+00
   2  1.1823E+05  6.9979E+03  0.0000E+00  0.0000E+00  0.0000E+00
   3  2.7661E+04  5.3597E+03  0.0000E+00  0.0000E+00  0.0000E+00
   4  1.0579E+05  1.1772E+03  0.0000E+00  0.0000E+00  0.0000E+00

      CONNECTED LAKE   TIME-STEP         STAGE-CHANGE          PERCENT
 LAKE    INFLUX      SURFACE AREA   TIME STEP  CUMULATIVE    DISCREPANCY
   1   7.6923E+04     6.7500E+06  -1.9153E-01 -2.3762E+00       0.000
   2  -2.4863E+04     3.7500E+06  -1.9153E-01 -2.3762E+00       0.000
   3   1.8002E+04     1.7500E+06  -1.9153E-01 -2.3762E+00       0.000
   4  -7.0062E+04     1.5000E+06  -1.9153E-01 -2.3762E+00       0.000
 --------------------------------------------------------------------------------



            CUMULATIVE HYDROLOGIC BUDGET SUMMARIES FOR SIMULATED LAKES
     (ALL FLUID FLUXES ARE SUMS OF VOLUMES ADDED TO THE LAKE SINCE INITIAL TIME)
     ---------------------------------------------------------------------------
 LAKE       PRECIP       EVAP       RUNOFF
   1     0.0000E+00  1.6851E+07  0.0000E+00
   2     0.0000E+00  9.3614E+06  0.0000E+00
   3     0.0000E+00  4.3686E+06  0.0000E+00
   4     0.0000E+00  3.7446E+06  0.0000E+00

            GROUND WATER            SURFACE WATER
 LAKE    INFLOW     OUTFLOW      INFLOW     OUTFLOW
   1  6.7038E+05  3.0287E+05  0.0000E+00  0.0000E+00
   2  7.2410E+05  9.0379E+04  0.0000E+00  0.0000E+00
   3  1.5382E+05  9.8025E+04  0.0000E+00  0.0000E+00
   4  6.1528E+05  1.9764E+04  0.0000E+00  0.0000E+00

         WATER    CONNECTED LAKE   CHANGE       PERCENT
 LAKE     USE         INFLUX       IN VOL.    DISCREPANCY
   1   0.0000E+00   4.4350E+05  -1.6039E+07      0.000
   2   0.0000E+00  -1.8283E+05  -8.9105E+06      0.000
   3   0.0000E+00   1.5455E+05  -4.1583E+06      0.000
   4   0.0000E+00  -4.1522E+05  -3.5643E+06      0.000
 --------------------------------------------------------------------------------


   1 CONNECTED LAKE SET

   4 LAKES:    1  2  3  4
 
 SOLVING FOR HEAD 
    10 ITERATIONS FOR TIME STEP  15 IN STRESS PERIOD    1

 HEAD/DRAWDOWN PRINTOUT FLAG = 0     TOTAL BUDGET PRINTOUT FLAG = 0
 CELL-BY-CELL FLOW TERM FLAG = 1

 OUTPUT FLAGS FOR ALL LAYERS ARE THE SAME:
   HEAD    DRAWDOWN  HEAD  DRAWDOWN
 PRINTOUT  PRINTOUT  SAVE    SAVE
 ----------------------------------
     0         0       0       0

 --------------------------------------------------------------------------------
 TIME STEP  15     NUMBER OF CONNECTED LAKES IS  4     TOTAL AREA =  0.137500000D+08



           SURFACE       SILL   WATER BUDGET  STAGE  CORRECTED   LAKE VOLUME
  LAKE       AREA      ELEVATION   STAGE   CORRECTION  STAGE     CORRECTION
 --------------------------------------------------------------------------------

   1     0.67500E+07 -99999.00    112.42      0.01    112.43     87783.    
 --------------------------------------------------------------------------------

   2     0.37500E+07    112.00    112.44     -0.01    112.43    -28106.    
 --------------------------------------------------------------------------------

   3     0.17500E+07    110.00    112.42      0.01    112.43     19601.    
 --------------------------------------------------------------------------------

   4     0.15000E+07    108.00    112.48     -0.05    112.43    -79278.    


     0  LAKE CELLS ARE DRY.

 PERIOD     1     TIME STEP    15     TIME STEP LENGTH  5.3639E+00
 PERIOD TIME  6.5955E+01     TOTAL SIMULATION TIME  6.5955E+01


                 HYDROLOGIC BUDGET SUMMARIES FOR SIMULATED LAKES
     (ALL FLUID FLUXES ARE VOLUMES ADDED TO THE LAKE DURING PRESENT TIME STEP)
     -------------------------------------------------------------------------
 LAKE    STAGE         VOLUME     VOL.CHANGE      PRECIP     EVAPORATION        RUNOFF
   1   112.4291     6.4146E+07   -1.3141E+06    0.0000E+00    1.4917E+06    0.0000E+00
   2   112.4291     3.0359E+07   -7.3006E+05    0.0000E+00    8.2873E+05    0.0000E+00
   3   112.4291     1.9501E+07   -3.4069E+05    0.0000E+00    3.8674E+05    0.0000E+00
   4   112.4291     1.8144E+07   -2.9202E+05    0.0000E+00    3.3149E+05    0.0000E+00

            GROUND WATER            SURFACE WATER        WATER
 LAKE    INFLOW     OUTFLOW      INFLOW     OUTFLOW       USE
   1  1.1091E+05  2.1052E+04  0.0000E+00  0.0000E+00  0.0000E+00
   2  1.3356E+05  6.7801E+03  0.0000E+00  0.0000E+00  0.0000E+00
   3  3.1141E+04  4.6942E+03  0.0000E+00  0.0000E+00  0.0000E+00
   4  1.1984E+05  1.0973E+03  0.0000E+00  0.0000E+00  0.0000E+00

      CONNECTED LAKE   TIME-STEP         STAGE-CHANGE          PERCENT
 LAKE    INFLUX      SURFACE AREA   TIME STEP  CUMULATIVE    DISCREPANCY
   1   8.7783E+04     6.7500E+06  -1.9468E-01 -2.5709E+00       0.000
   2  -2.8106E+04     3.7500E+06  -1.9468E-01 -2.5709E+00       0.000
   3   1.9601E+04     1.7500E+06  -1.9468E-01 -2.5709E+00       0.000
   4  -7.9278E+04     1.5000E+06  -1.9468E-01 -2.5709E+00       0.001
 --------------------------------------------------------------------------------



            CUMULATIVE HYDROLOGIC BUDGET SUMMARIES FOR SIMULATED LAKES
     (ALL FLUID FLUXES ARE SUMS OF VOLUMES ADDED TO THE LAKE SINCE INITIAL TIME)
     ---------------------------------------------------------------------------
 LAKE       PRECIP       EVAP       RUNOFF
   1     0.0000E+00  1.8342E+07  0.0000E+00
   2     0.0000E+00  1.0190E+07  0.0000E+00
   3     0.0000E+00  4.7554E+06  0.0000E+00
   4     0.0000E+00  4.0760E+06  0.0000E+00

            GROUND WATER            SURFACE WATER
 LAKE    INFLOW     OUTFLOW      INFLOW     OUTFLOW
   1  7.8129E+05  3.2392E+05  0.0000E+00  0.0000E+00
   2  8.5766E+05  9.7160E+04  0.0000E+00  0.0000E+00
   3  1.8496E+05  1.0272E+05  0.0000E+00  0.0000E+00
   4  7.3512E+05  2.0861E+04  0.0000E+00  0.0000E+00

         WATER    CONNECTED LAKE   CHANGE       PERCENT
 LAKE     USE         INFLUX       IN VOL.    DISCREPANCY
   1   0.0000E+00   5.3129E+05  -1.7354E+07      0.000
   2   0.0000E+00  -2.1094E+05  -9.6406E+06      0.000
   3   0.0000E+00   1.7415E+05  -4.4990E+06      0.000
   4   0.0000E+00  -4.9450E+05  -3.8563E+06      0.000
 --------------------------------------------------------------------------------


   1 CONNECTED LAKE SET

   4 LAKES:    1  2  3  4
 
 SOLVING FOR HEAD 
    10 ITERATIONS FOR TIME STEP  16 IN STRESS PERIOD    1

 HEAD/DRAWDOWN PRINTOUT FLAG = 0     TOTAL BUDGET PRINTOUT FLAG = 0
 CELL-BY-CELL FLOW TERM FLAG = 1

 OUTPUT FLAGS FOR ALL LAYERS ARE THE SAME:
   HEAD    DRAWDOWN  HEAD  DRAWDOWN
 PRINTOUT  PRINTOUT  SAVE    SAVE
 ----------------------------------
     0         0       0       0

 --------------------------------------------------------------------------------
 TIME STEP  16     NUMBER OF CONNECTED LAKES IS  4     TOTAL AREA =  0.137500000D+08



           SURFACE       SILL   WATER BUDGET  STAGE  CORRECTED   LAKE VOLUME
  LAKE       AREA      ELEVATION   STAGE   CORRECTION  STAGE     CORRECTION
 --------------------------------------------------------------------------------

   1     0.67500E+07 -99999.00    112.22      0.01    112.23     99665.    
 --------------------------------------------------------------------------------

   2     0.37500E+07    112.00    112.24     -0.01    112.23    -31921.    
 --------------------------------------------------------------------------------

   3     0.17500E+07    110.00    112.22      0.01    112.23     21382.    
 --------------------------------------------------------------------------------

   4     0.15000E+07    108.00    112.29     -0.06    112.23    -89125.    


     0  LAKE CELLS ARE DRY.

 PERIOD     1     TIME STEP    16     TIME STEP LENGTH  5.5249E+00
 PERIOD TIME  7.1480E+01     TOTAL SIMULATION TIME  7.1480E+01


                 HYDROLOGIC BUDGET SUMMARIES FOR SIMULATED LAKES
     (ALL FLUID FLUXES ARE VOLUMES ADDED TO THE LAKE DURING PRESENT TIME STEP)
     -------------------------------------------------------------------------
 LAKE    STAGE         VOLUME     VOL.CHANGE      PRECIP     EVAPORATION        RUNOFF
   1   112.2314     6.2810E+07   -1.3351E+06    0.0000E+00    1.5365E+06    0.0000E+00
   2   112.2314     2.9617E+07   -7.4171E+05    0.0000E+00    8.5359E+05    0.0000E+00
   3   112.2314     1.9155E+07   -3.4613E+05    0.0000E+00    3.9834E+05    0.0000E+00
   4   112.2314     1.7847E+07   -2.9668E+05    0.0000E+00    3.4144E+05    0.0000E+00

            GROUND WATER            SURFACE WATER        WATER
 LAKE    INFLOW     OUTFLOW      INFLOW     OUTFLOW       USE
   1  1.2158E+05  1.9834E+04  0.0000E+00  0.0000E+00  0.0000E+00
   2  1.5033E+05  6.5283E+03  0.0000E+00  0.0000E+00  0.0000E+00
   3  3.4799E+04  3.9712E+03  0.0000E+00  0.0000E+00  0.0000E+00
   4  1.3489E+05  1.0132E+03  0.0000E+00  0.0000E+00  0.0000E+00

      CONNECTED LAKE   TIME-STEP         STAGE-CHANGE          PERCENT
 LAKE    INFLUX      SURFACE AREA   TIME STEP  CUMULATIVE    DISCREPANCY
   1   9.9665E+04     6.7500E+06  -1.9779E-01 -2.7686E+00       0.000
   2  -3.1921E+04     3.7500E+06  -1.9779E-01 -2.7686E+00       0.000
   3   2.1382E+04     1.7500E+06  -1.9779E-01 -2.7686E+00       0.000
   4  -8.9125E+04     1.5000E+06  -1.9779E-01 -2.7686E+00      -0.001
 --------------------------------------------------------------------------------



            CUMULATIVE HYDROLOGIC BUDGET SUMMARIES FOR SIMULATED LAKES
     (ALL FLUID FLUXES ARE SUMS OF VOLUMES ADDED TO THE LAKE SINCE INITIAL TIME)
     ---------------------------------------------------------------------------
 LAKE       PRECIP       EVAP       RUNOFF
   1     0.0000E+00  1.9879E+07  0.0000E+00
   2     0.0000E+00  1.1044E+07  0.0000E+00
   3     0.0000E+00  5.1537E+06  0.0000E+00
   4     0.0000E+00  4.4175E+06  0.0000E+00

            GROUND WATER            SURFACE WATER
 LAKE    INFLOW     OUTFLOW      INFLOW     OUTFLOW
   1  9.0287E+05  3.4376E+05  0.0000E+00  0.0000E+00
   2  1.0080E+06  1.0369E+05  0.0000E+00  0.0000E+00
   3  2.1976E+05  1.0669E+05  0.0000E+00  0.0000E+00
   4  8.7001E+05  2.1875E+04  0.0000E+00  0.0000E+00

         WATER    CONNECTED LAKE   CHANGE       PERCENT
 LAKE     USE         INFLUX       IN VOL.    DISCREPANCY
   1   0.0000E+00   6.3095E+05  -1.8689E+07      0.000
   2   0.0000E+00  -2.4286E+05  -1.0382E+07      0.000
   3   0.0000E+00   1.9553E+05  -4.8451E+06      0.000
   4   0.0000E+00  -5.8362E+05  -4.1530E+06      0.000
 --------------------------------------------------------------------------------


   1 CONNECTED LAKE SET

   4 LAKES:    1  2  3  4
 
 SOLVING FOR HEAD 
    10 ITERATIONS FOR TIME STEP  17 IN STRESS PERIOD    1

 HEAD/DRAWDOWN PRINTOUT FLAG = 0     TOTAL BUDGET PRINTOUT FLAG = 0
 CELL-BY-CELL FLOW TERM FLAG = 1

 OUTPUT FLAGS FOR ALL LAYERS ARE THE SAME:
   HEAD    DRAWDOWN  HEAD  DRAWDOWN
 PRINTOUT  PRINTOUT  SAVE    SAVE
 ----------------------------------
     0         0       0       0

 --------------------------------------------------------------------------------
 TIME STEP  17     NUMBER OF CONNECTED LAKES IS  4     TOTAL AREA =  0.137500000D+08



           SURFACE       SILL   WATER BUDGET  STAGE  CORRECTED   LAKE VOLUME
  LAKE       AREA      ELEVATION   STAGE   CORRECTION  STAGE     CORRECTION
 --------------------------------------------------------------------------------

   1     0.67500E+07 -99999.00    112.01      0.02    112.03    0.11262E+06
 --------------------------------------------------------------------------------

   2     0.37500E+07    112.00    112.04     -0.01    112.03    -36378.    
 --------------------------------------------------------------------------------

   3     0.17500E+07    110.00    112.02      0.01    112.03     23350.    
 --------------------------------------------------------------------------------

   4     0.15000E+07    108.00    112.10     -0.07    112.03    -99594.    


     0  LAKE CELLS ARE DRY.

 PERIOD     1     TIME STEP    17     TIME STEP LENGTH  5.6906E+00
 PERIOD TIME  7.7171E+01     TOTAL SIMULATION TIME  7.7171E+01


                 HYDROLOGIC BUDGET SUMMARIES FOR SIMULATED LAKES
     (ALL FLUID FLUXES ARE VOLUMES ADDED TO THE LAKE DURING PRESENT TIME STEP)
     -------------------------------------------------------------------------
 LAKE    STAGE         VOLUME     VOL.CHANGE      PRECIP     EVAPORATION        RUNOFF
   1   112.0305     6.1455E+07   -1.3557E+06    0.0000E+00    1.5826E+06    0.0000E+00
   2   112.0305     2.8864E+07   -7.5320E+05    0.0000E+00    8.7920E+05    0.0000E+00
   3   112.0305     1.8803E+07   -3.5149E+05    0.0000E+00    4.1029E+05    0.0000E+00
   4   112.0305     1.7546E+07   -3.0128E+05    0.0000E+00    3.5168E+05    0.0000E+00

            GROUND WATER            SURFACE WATER        WATER
 LAKE    INFLOW     OUTFLOW      INFLOW     OUTFLOW       USE
   1  1.3270E+05  1.8491E+04  0.0000E+00  0.0000E+00  0.0000E+00
   2  1.6863E+05  6.2525E+03  0.0000E+00  0.0000E+00  0.0000E+00
   3  3.8638E+04  3.1892E+03  0.0000E+00  0.0000E+00  0.0000E+00
   4  1.5092E+05  9.2531E+02  0.0000E+00  0.0000E+00  0.0000E+00

      CONNECTED LAKE   TIME-STEP         STAGE-CHANGE          PERCENT
 LAKE    INFLUX      SURFACE AREA   TIME STEP  CUMULATIVE    DISCREPANCY
   1   1.1262E+05     6.7500E+06  -2.0085E-01 -2.9695E+00       0.000
   2  -3.6378E+04     3.7500E+06  -2.0085E-01 -2.9695E+00       0.000
   3   2.3350E+04     1.7500E+06  -2.0085E-01 -2.9695E+00       0.000
   4  -9.9594E+04     1.5000E+06  -2.0085E-01 -2.9695E+00       0.000
 --------------------------------------------------------------------------------



            CUMULATIVE HYDROLOGIC BUDGET SUMMARIES FOR SIMULATED LAKES
     (ALL FLUID FLUXES ARE SUMS OF VOLUMES ADDED TO THE LAKE SINCE INITIAL TIME)
     ---------------------------------------------------------------------------
 LAKE       PRECIP       EVAP       RUNOFF
   1     0.0000E+00  2.1461E+07  0.0000E+00
   2     0.0000E+00  1.1923E+07  0.0000E+00
   3     0.0000E+00  5.5640E+06  0.0000E+00
   4     0.0000E+00  4.7692E+06  0.0000E+00

            GROUND WATER            SURFACE WATER
 LAKE    INFLOW     OUTFLOW      INFLOW     OUTFLOW
   1  1.0356E+06  3.6225E+05  0.0000E+00  0.0000E+00
   2  1.1766E+06  1.0994E+05  0.0000E+00  0.0000E+00
   3  2.5840E+05  1.0988E+05  0.0000E+00  0.0000E+00
   4  1.0209E+06  2.2800E+04  0.0000E+00  0.0000E+00

         WATER    CONNECTED LAKE   CHANGE       PERCENT
 LAKE     USE         INFLUX       IN VOL.    DISCREPANCY
   1   0.0000E+00   7.4357E+05  -2.0044E+07      0.000
   2   0.0000E+00  -2.7924E+05  -1.1135E+07      0.000
   3   0.0000E+00   2.1888E+05  -5.1966E+06      0.000
   4   0.0000E+00  -6.8322E+05  -4.4543E+06      0.000
 --------------------------------------------------------------------------------


   1 CONNECTED LAKE SET

   4 LAKES:    1  2  3  4
 
 SOLVING FOR HEAD 
    10 ITERATIONS FOR TIME STEP  18 IN STRESS PERIOD    1

 HEAD/DRAWDOWN PRINTOUT FLAG = 0     TOTAL BUDGET PRINTOUT FLAG = 0
 CELL-BY-CELL FLOW TERM FLAG = 1

 OUTPUT FLAGS FOR ALL LAYERS ARE THE SAME:
   HEAD    DRAWDOWN  HEAD  DRAWDOWN
 PRINTOUT  PRINTOUT  SAVE    SAVE
 ----------------------------------
     0         0       0       0

 --------------------------------------------------------------------------------
 TIME STEP  18     NUMBER OF CONNECTED LAKES IS  3     TOTAL AREA =  0.100000000D+08



           SURFACE       SILL   WATER BUDGET  STAGE  CORRECTED   LAKE VOLUME
  LAKE       AREA      ELEVATION   STAGE   CORRECTION  STAGE     CORRECTION
 --------------------------------------------------------------------------------

   1     0.67500E+07 -99999.00    111.81      0.01    111.82     98654.    
 --------------------------------------------------------------------------------

   3     0.17500E+07    110.00    111.81      0.01    111.82     18241.    
 --------------------------------------------------------------------------------

   4     0.15000E+07    108.00    111.90     -0.08    111.82   -0.11689E+06


     0  LAKE CELLS ARE DRY.

 PERIOD     1     TIME STEP    18     TIME STEP LENGTH  5.8613E+00
 PERIOD TIME  8.3032E+01     TOTAL SIMULATION TIME  8.3032E+01


                 HYDROLOGIC BUDGET SUMMARIES FOR SIMULATED LAKES
     (ALL FLUID FLUXES ARE VOLUMES ADDED TO THE LAKE DURING PRESENT TIME STEP)
     -------------------------------------------------------------------------
 LAKE    STAGE         VOLUME     VOL.CHANGE      PRECIP     EVAPORATION        RUNOFF
   1   111.8225     6.0051E+07   -1.4041E+06    0.0000E+00    1.6300E+06    0.0000E+00
   2   111.8377     2.8141E+07   -7.2290E+05    0.0000E+00    9.0558E+05    0.0000E+00
   3   111.8225     1.8439E+07   -3.6403E+05    0.0000E+00    4.2260E+05    0.0000E+00
   4   111.8225     1.7234E+07   -3.1202E+05    0.0000E+00    3.6223E+05    0.0000E+00

            GROUND WATER            SURFACE WATER        WATER
 LAKE    INFLOW     OUTFLOW      INFLOW     OUTFLOW       USE
   1  1.4432E+05  1.7014E+04  0.0000E+00  0.0000E+00  0.0000E+00
   2  1.8862E+05  5.9469E+03  0.0000E+00  0.0000E+00  0.0000E+00
   3  4.2681E+04  2.3479E+03  0.0000E+00  0.0000E+00  0.0000E+00
   4  1.6794E+05  8.3363E+02  0.0000E+00  0.0000E+00  0.0000E+00

      CONNECTED LAKE   TIME-STEP         STAGE-CHANGE          PERCENT
 LAKE    INFLUX      SURFACE AREA   TIME STEP  CUMULATIVE    DISCREPANCY
   1   9.8654E+04     6.7500E+06  -2.0802E-01 -3.1775E+00       0.000
   2   0.0000E+00     3.7500E+06  -1.9277E-01 -3.1623E+00       0.000
   3   1.8241E+04     1.7500E+06  -2.0802E-01 -3.1775E+00       0.000
   4  -1.1689E+05     1.5000E+06  -2.0802E-01 -3.1775E+00       0.000
 --------------------------------------------------------------------------------



            CUMULATIVE HYDROLOGIC BUDGET SUMMARIES FOR SIMULATED LAKES
     (ALL FLUID FLUXES ARE SUMS OF VOLUMES ADDED TO THE LAKE SINCE INITIAL TIME)
     ---------------------------------------------------------------------------
 LAKE       PRECIP       EVAP       RUNOFF
   1     0.0000E+00  2.3091E+07  0.0000E+00
   2     0.0000E+00  1.2828E+07  0.0000E+00
   3     0.0000E+00  5.9866E+06  0.0000E+00
   4     0.0000E+00  5.1314E+06  0.0000E+00

            GROUND WATER            SURFACE WATER
 LAKE    INFLOW     OUTFLOW      INFLOW     OUTFLOW
   1  1.1799E+06  3.7926E+05  0.0000E+00  0.0000E+00
   2  1.3652E+06  1.1589E+05  0.0000E+00  0.0000E+00
   3  3.0108E+05  1.1223E+05  0.0000E+00  0.0000E+00
   4  1.1889E+06  2.3634E+04  0.0000E+00  0.0000E+00

         WATER    CONNECTED LAKE   CHANGE       PERCENT
 LAKE     USE         INFLUX       IN VOL.    DISCREPANCY
   1   0.0000E+00   8.4223E+05  -2.1448E+07      0.000
   2   0.0000E+00  -2.7924E+05  -1.1858E+07      0.000
   3   0.0000E+00   2.3712E+05  -5.5607E+06      0.000
   4   0.0000E+00  -8.0011E+05  -4.7663E+06      0.000
 --------------------------------------------------------------------------------


   1 CONNECTED LAKE SET

   3 LAKES:    1  3  4
 
 SOLVING FOR HEAD 
    12 ITERATIONS FOR TIME STEP  19 IN STRESS PERIOD    1

 HEAD/DRAWDOWN PRINTOUT FLAG = 0     TOTAL BUDGET PRINTOUT FLAG = 0
 CELL-BY-CELL FLOW TERM FLAG = 1

 OUTPUT FLAGS FOR ALL LAYERS ARE THE SAME:
   HEAD    DRAWDOWN  HEAD  DRAWDOWN
 PRINTOUT  PRINTOUT  SAVE    SAVE
 ----------------------------------
     0         0       0       0

 --------------------------------------------------------------------------------
 TIME STEP  19     NUMBER OF CONNECTED LAKES IS  3     TOTAL AREA =  0.100000000D+08



           SURFACE       SILL   WATER BUDGET  STAGE  CORRECTED   LAKE VOLUME
  LAKE       AREA      ELEVATION   STAGE   CORRECTION  STAGE     CORRECTION
 --------------------------------------------------------------------------------

   1     0.67500E+07 -99999.00    111.59      0.02    111.61    0.10993E+06
 --------------------------------------------------------------------------------

   3     0.17500E+07    110.00    111.60      0.01    111.61     19554.    
 --------------------------------------------------------------------------------

   4     0.15000E+07    108.00    111.70     -0.09    111.61   -0.12948E+06


     0  LAKE CELLS ARE DRY.

 PERIOD     1     TIME STEP    19     TIME STEP LENGTH  6.0372E+00
 PERIOD TIME  8.9069E+01     TOTAL SIMULATION TIME  8.9069E+01


                 HYDROLOGIC BUDGET SUMMARIES FOR SIMULATED LAKES
     (ALL FLUID FLUXES ARE VOLUMES ADDED TO THE LAKE DURING PRESENT TIME STEP)
     -------------------------------------------------------------------------
 LAKE    STAGE         VOLUME     VOL.CHANGE      PRECIP     EVAPORATION        RUNOFF
   1   111.6110     5.8623E+07   -1.4275E+06    0.0000E+00    1.6789E+06    0.0000E+00
   2   111.6433     2.7412E+07   -7.2915E+05    0.0000E+00    9.3274E+05    0.0000E+00
   3   111.6110     1.8069E+07   -3.7011E+05    0.0000E+00    4.3528E+05    0.0000E+00
   4   111.6110     1.6916E+07   -3.1724E+05    0.0000E+00    3.7310E+05    0.0000E+00

            GROUND WATER            SURFACE WATER        WATER
 LAKE    INFLOW     OUTFLOW      INFLOW     OUTFLOW       USE
   1  1.5664E+05  1.5175E+04  0.0000E+00  0.0000E+00  0.0000E+00
   2  2.0949E+05  5.8921E+03  0.0000E+00  0.0000E+00  0.0000E+00
   3  4.7015E+04  1.4016E+03  0.0000E+00  0.0000E+00  0.0000E+00
   4  1.8607E+05  7.2883E+02  0.0000E+00  0.0000E+00  0.0000E+00

      CONNECTED LAKE   TIME-STEP         STAGE-CHANGE          PERCENT
 LAKE    INFLUX      SURFACE AREA   TIME STEP  CUMULATIVE    DISCREPANCY
   1   1.0993E+05     6.7500E+06  -2.1149E-01 -3.3890E+00       0.000
   2   0.0000E+00     3.7500E+06  -1.9444E-01 -3.3567E+00       0.000
   3   1.9554E+04     1.7500E+06  -2.1149E-01 -3.3890E+00       0.000
   4  -1.2948E+05     1.5000E+06  -2.1149E-01 -3.3890E+00       0.000
 --------------------------------------------------------------------------------



            CUMULATIVE HYDROLOGIC BUDGET SUMMARIES FOR SIMULATED LAKES
     (ALL FLUID FLUXES ARE SUMS OF VOLUMES ADDED TO THE LAKE SINCE INITIAL TIME)
     ---------------------------------------------------------------------------
 LAKE       PRECIP       EVAP       RUNOFF
   1     0.0000E+00  2.4770E+07  0.0000E+00
   2     0.0000E+00  1.3761E+07  0.0000E+00
   3     0.0000E+00  6.4219E+06  0.0000E+00
   4     0.0000E+00  5.5045E+06  0.0000E+00

            GROUND WATER            SURFACE WATER
 LAKE    INFLOW     OUTFLOW      INFLOW     OUTFLOW
   1  1.3365E+06  3.9444E+05  0.0000E+00  0.0000E+00
   2  1.5747E+06  1.2178E+05  0.0000E+00  0.0000E+00
   3  3.4809E+05  1.1363E+05  0.0000E+00  0.0000E+00
   4  1.3749E+06  2.4362E+04  0.0000E+00  0.0000E+00

         WATER    CONNECTED LAKE   CHANGE       PERCENT
 LAKE     USE         INFLUX       IN VOL.    DISCREPANCY
   1   0.0000E+00   9.5216E+05  -2.2876E+07      0.000
   2   0.0000E+00  -2.7924E+05  -1.2588E+07      0.000
   3   0.0000E+00   2.5668E+05  -5.9308E+06      0.000
   4   0.0000E+00  -9.2960E+05  -5.0835E+06      0.000
 --------------------------------------------------------------------------------


   1 CONNECTED LAKE SET

   3 LAKES:    1  3  4
 
 SOLVING FOR HEAD 
    12 ITERATIONS FOR TIME STEP  20 IN STRESS PERIOD    1

 HEAD/DRAWDOWN PRINTOUT FLAG = 1     TOTAL BUDGET PRINTOUT FLAG = 1
 CELL-BY-CELL FLOW TERM FLAG = 1

 OUTPUT FLAGS FOR EACH LAYER:
          HEAD    DRAWDOWN  HEAD  DRAWDOWN
 LAYER  PRINTOUT  PRINTOUT  SAVE    SAVE
 -----------------------------------------
    1       0         0       0       0
    2       0         0       0       0
    3       0         0       0       0
    4       0         0       0       0
    5       1         0       0       0

 --------------------------------------------------------------------------------
 TIME STEP  20     NUMBER OF CONNECTED LAKES IS  3     TOTAL AREA =  0.100000000D+08



           SURFACE       SILL   WATER BUDGET  STAGE  CORRECTED   LAKE VOLUME
  LAKE       AREA      ELEVATION   STAGE   CORRECTION  STAGE     CORRECTION
 --------------------------------------------------------------------------------

   1     0.67500E+07 -99999.00    111.38      0.02    111.40    0.12188E+06
 --------------------------------------------------------------------------------

   3     0.17500E+07    110.00    111.38      0.01    111.40     20897.    
 --------------------------------------------------------------------------------

   4     0.15000E+07    108.00    111.49     -0.10    111.40   -0.14278E+06


     0  LAKE CELLS ARE DRY.

 PERIOD     1     TIME STEP    20     TIME STEP LENGTH  6.2183E+00
 PERIOD TIME  9.5288E+01     TOTAL SIMULATION TIME  9.5288E+01


                 HYDROLOGIC BUDGET SUMMARIES FOR SIMULATED LAKES
     (ALL FLUID FLUXES ARE VOLUMES ADDED TO THE LAKE DURING PRESENT TIME STEP)
     -------------------------------------------------------------------------
 LAKE    STAGE         VOLUME     VOL.CHANGE      PRECIP     EVAPORATION        RUNOFF
   1   111.3960     5.7172E+07   -1.4508E+06    0.0000E+00    1.7293E+06    0.0000E+00
   2   111.4475     2.6678E+07   -7.3415E+05    0.0000E+00    9.6072E+05    0.0000E+00
   3   111.3960     1.7693E+07   -3.7615E+05    0.0000E+00    4.4834E+05    0.0000E+00
   4   111.3960     1.6594E+07   -3.2242E+05    0.0000E+00    3.8429E+05    0.0000E+00

            GROUND WATER            SURFACE WATER        WATER
 LAKE    INFLOW     OUTFLOW      INFLOW     OUTFLOW       USE
   1  1.6968E+05  1.3100E+04  0.0000E+00  0.0000E+00  0.0000E+00
   2  2.3240E+05  5.8257E+03  0.0000E+00  0.0000E+00  0.0000E+00
   3  5.2143E+04  8.5556E+02  0.0000E+00  0.0000E+00  0.0000E+00
   4  2.0527E+05  6.2121E+02  0.0000E+00  0.0000E+00  0.0000E+00

      CONNECTED LAKE   TIME-STEP         STAGE-CHANGE          PERCENT
 LAKE    INFLUX      SURFACE AREA   TIME STEP  CUMULATIVE    DISCREPANCY
   1   1.2188E+05     6.7500E+06  -2.1494E-01 -3.6040E+00       0.000
   2   0.0000E+00     3.7500E+06  -1.9577E-01 -3.5525E+00       0.000
   3   2.0897E+04     1.7500E+06  -2.1494E-01 -3.6040E+00       0.000
   4  -1.4278E+05     1.5000E+06  -2.1494E-01 -3.6040E+00       0.000
 --------------------------------------------------------------------------------



            CUMULATIVE HYDROLOGIC BUDGET SUMMARIES FOR SIMULATED LAKES
     (ALL FLUID FLUXES ARE SUMS OF VOLUMES ADDED TO THE LAKE SINCE INITIAL TIME)
     ---------------------------------------------------------------------------
 LAKE       PRECIP       EVAP       RUNOFF
   1     0.0000E+00  2.6500E+07  0.0000E+00
   2     0.0000E+00  1.4722E+07  0.0000E+00
   3     0.0000E+00  6.8702E+06  0.0000E+00
   4     0.0000E+00  5.8888E+06  0.0000E+00

            GROUND WATER            SURFACE WATER
 LAKE    INFLOW     OUTFLOW      INFLOW     OUTFLOW
   1  1.5062E+06  4.0754E+05  0.0000E+00  0.0000E+00
   2  1.8071E+06  1.2761E+05  0.0000E+00  0.0000E+00
   3  4.0023E+05  1.1449E+05  0.0000E+00  0.0000E+00
   4  1.5802E+06  2.4984E+04  0.0000E+00  0.0000E+00

         WATER    CONNECTED LAKE   CHANGE       PERCENT
 LAKE     USE         INFLUX       IN VOL.    DISCREPANCY
   1   0.0000E+00   1.0740E+06  -2.4327E+07      0.000
   2   0.0000E+00  -2.7924E+05  -1.3322E+07      0.000
   3   0.0000E+00   2.7757E+05  -6.3069E+06      0.000
   4   0.0000E+00  -1.0724E+06  -5.4059E+06      0.000
 --------------------------------------------------------------------------------


   1 CONNECTED LAKE SET

   3 LAKES:    1  3  4
1
              HEAD IN LAYER   5 AT END OF TIME STEP  20 IN STRESS PERIOD    1
  ---------------------------------------------------------------------------

          1      2      3      4      5      6      7      8      9     10
 .........................................................................
   1   160.0  158.9  157.3  155.8  154.6  153.9  153.1  152.3  151.5  150.8
   2   160.0  151.8  144.9  141.4  140.0  139.3  138.6  138.0  137.5  136.9
   3   160.0  146.5  131.6  125.1  123.5  123.0  122.6  122.4  122.2  122.0
   4   160.0  144.4  126.1  118.8  117.3  116.9  116.7  116.6  116.5  116.5
   5   160.0  143.7  124.7  117.3  115.7  115.3  115.2  115.1  115.1  115.1
   6   160.0  143.6  124.3  116.7  114.7  114.2  114.1  114.0  114.0  114.0
   7   160.0  143.5  124.2  116.1  111.7  111.5  111.5  111.8  111.5  111.5
   8   160.0  143.5  124.1  115.9  111.6  111.5  111.4  111.0  111.4  111.4
   9   160.0  143.5  124.1  115.9  111.6  111.5  111.4  111.3  111.4  111.4
  10   160.0  143.5  124.1  115.9  111.6  111.5  111.4  111.0  111.4  111.4
  11   160.0  143.5  124.2  116.1  111.7  111.5  111.5  111.8  111.5  111.5
  12   160.0  143.6  124.3  116.7  114.7  114.2  114.1  114.0  114.0  114.0
  13   160.0  143.7  124.7  117.3  115.7  115.3  115.2  115.1  115.1  115.1
  14   160.0  144.4  126.1  118.8  117.3  116.9  116.7  116.6  116.5  116.5
  15   160.0  146.5  131.6  125.1  123.5  123.0  122.6  122.4  122.2  122.0
  16   160.0  151.8  144.9  141.4  140.0  139.3  138.6  138.0  137.5  136.9
  17   160.0  158.9  157.3  155.8  154.6  153.9  153.1  152.3  151.5  150.8
1
              HEAD IN LAYER   5 AT END OF TIME STEP  20 IN STRESS PERIOD    1
  ---------------------------------------------------------------------------

         11     12     13     14     15     16     17     18     19     20
 .........................................................................
   1   150.0  149.2  148.5  147.7  146.9  146.1  145.4  144.6  143.9  142.7
   2   136.3  135.7  135.2  134.6  134.0  133.5  132.9  132.5  132.1  132.1
   3   121.8  121.6  121.4  121.2  121.1  120.9  120.9  121.0  121.6  123.5
   4   116.4  116.4  116.4  116.3  116.3  116.3  116.5  116.8  117.7  120.3
   5   115.0  115.1  115.1  115.1  115.1  115.2  115.4  115.8  116.7  119.5
   6   114.0  114.0  114.1  114.3  114.4  114.6  114.7  115.2  116.2  119.2
   7   111.5  111.5  111.5  112.6  113.0  113.2  113.3  113.7  114.6  118.7
   8   111.4  111.4  111.4  111.2  111.4  111.4  111.4  111.6  111.8  118.2
   9   111.4  111.4  111.4  111.4  111.4  111.4  111.4  111.5  111.7  118.1
  10   111.4  111.4  111.4  111.2  111.4  111.5  111.4  111.6  111.8  118.2
  11   111.5  111.5  111.5  112.6  113.0  113.2  113.3  113.7  114.7  118.7
  12   114.0  114.0  114.1  114.3  114.4  114.6  114.7  115.2  116.2  119.2
  13   115.0  115.1  115.1  115.1  115.1  115.2  115.4  115.8  116.7  119.5
  14   116.4  116.4  116.4  116.3  116.3  116.3  116.5  116.8  117.7  120.3
  15   121.8  121.6  121.4  121.2  121.1  120.9  120.9  121.0  121.6  123.5
  16   136.3  135.7  135.2  134.6  134.0  133.5  132.9  132.5  132.1  132.1
  17   150.0  149.2  148.5  147.7  146.9  146.1  145.4  144.6  143.9  142.7
1
              HEAD IN LAYER   5 AT END OF TIME STEP  20 IN STRESS PERIOD    1
  ---------------------------------------------------------------------------

         21     22
 .................
   1   141.1  140.0
   2   134.3  140.0
   3   130.5  140.0
   4   129.3  140.0
   5   129.1  140.0
   6   129.0  140.0
   7   128.9  140.0
   8   128.9  140.0
   9   128.9  140.0
  10   128.9  140.0
  11   128.9  140.0
  12   129.0  140.0
  13   129.1  140.0
  14   129.3  140.0
  15   130.5  140.0
  16   134.3  140.0
  17   141.1  140.0
1
  VOLUMETRIC BUDGET FOR ENTIRE MODEL AT END OF TIME STEP 20 IN STRESS PERIOD   1
  ------------------------------------------------------------------------------

     CUMULATIVE VOLUMES      L**3       RATES FOR THIS TIME STEP      L**3/T
     ------------------                 ------------------------

           IN:                                      IN:
           ---                                      ---
             STORAGE =     4502799.0000               STORAGE =       49003.5117
       CONSTANT HEAD =   287862240.0000         CONSTANT HEAD =     2135799.2500
                  ET =           0.0000                    ET =           0.0000
            RECHARGE =           0.0000              RECHARGE =           0.0000
     SPECIFIED FLOWS =           0.0000       SPECIFIED FLOWS =           0.0000
       LAKE  SEEPAGE =      674609.5625         LAKE  SEEPAGE =        3281.0884

            TOTAL IN =   293039648.0000              TOTAL IN =     2188083.7500

          OUT:                                     OUT:
          ----                                     ----
             STORAGE =   275566976.0000               STORAGE =     1747940.3750
       CONSTANT HEAD =           0.0000         CONSTANT HEAD =           0.0000
                  ET =    12183292.0000                    ET =      334099.0938
            RECHARGE =           0.0000              RECHARGE =           0.0000
     SPECIFIED FLOWS =           0.0000       SPECIFIED FLOWS =           0.0000
       LAKE  SEEPAGE =     5293778.0000         LAKE  SEEPAGE =      106058.6797

           TOTAL OUT =   293044032.0000             TOTAL OUT =     2188098.2500

            IN - OUT =       -4384.0000              IN - OUT =         -14.5000

 PERCENT DISCREPANCY =           0.00     PERCENT DISCREPANCY =           0.00






          TIME SUMMARY AT END OF TIME STEP  20 IN STRESS PERIOD    1
                    SECONDS     MINUTES      HOURS       DAYS        YEARS
                    -----------------------------------------------------------
   TIME STEP LENGTH 5.37260E+05  8954.3      149.24      6.2183     1.70247E-02
 STRESS PERIOD TIME 8.23286E+06 1.37214E+05  2286.9      95.288     0.26088    
         TOTAL TIME 8.23286E+06 1.37214E+05  2286.9      95.288     0.26088    
1
 
 SOLVING FOR HEAD 
    12 ITERATIONS FOR TIME STEP  21 IN STRESS PERIOD    1

 HEAD/DRAWDOWN PRINTOUT FLAG = 0     TOTAL BUDGET PRINTOUT FLAG = 0
 CELL-BY-CELL FLOW TERM FLAG = 1

 OUTPUT FLAGS FOR ALL LAYERS ARE THE SAME:
   HEAD    DRAWDOWN  HEAD  DRAWDOWN
 PRINTOUT  PRINTOUT  SAVE    SAVE
 ----------------------------------
     0         0       0       0

 --------------------------------------------------------------------------------
 TIME STEP  21     NUMBER OF CONNECTED LAKES IS  3     TOTAL AREA =  0.100000000D+08



           SURFACE       SILL   WATER BUDGET  STAGE  CORRECTED   LAKE VOLUME
  LAKE       AREA      ELEVATION   STAGE   CORRECTION  STAGE     CORRECTION
 --------------------------------------------------------------------------------

   1     0.67500E+07 -99999.00    111.16      0.02    111.18    0.13444E+06
 --------------------------------------------------------------------------------

   3     0.17500E+07    110.00    111.16      0.01    111.18     22302.    
 --------------------------------------------------------------------------------

   4     0.15000E+07    108.00    111.28     -0.10    111.18   -0.15674E+06


     0  LAKE CELLS ARE DRY.

 PERIOD     1     TIME STEP    21     TIME STEP LENGTH  6.4048E+00
 PERIOD TIME  1.0169E+02     TOTAL SIMULATION TIME  1.0169E+02


                 HYDROLOGIC BUDGET SUMMARIES FOR SIMULATED LAKES
     (ALL FLUID FLUXES ARE VOLUMES ADDED TO THE LAKE DURING PRESENT TIME STEP)
     -------------------------------------------------------------------------
 LAKE    STAGE         VOLUME     VOL.CHANGE      PRECIP     EVAPORATION        RUNOFF
   1   111.1776     5.5698E+07   -1.4742E+06    0.0000E+00    1.7812E+06    0.0000E+00
   2   111.2507     2.5940E+07   -7.3801E+05    0.0000E+00    9.8955E+05    0.0000E+00
   3   111.1776     1.7311E+07   -3.8222E+05    0.0000E+00    4.6179E+05    0.0000E+00
   4   111.1776     1.6266E+07   -3.2761E+05    0.0000E+00    3.9582E+05    0.0000E+00

            GROUND WATER            SURFACE WATER        WATER
 LAKE    INFLOW     OUTFLOW      INFLOW     OUTFLOW       USE
   1  1.8334E+05  1.0828E+04  0.0000E+00  0.0000E+00  0.0000E+00
   2  2.5732E+05  5.7839E+03  0.0000E+00  0.0000E+00  0.0000E+00
   3  5.7871E+04  6.0057E+02  0.0000E+00  0.0000E+00  0.0000E+00
   4  2.2546E+05  5.1033E+02  0.0000E+00  0.0000E+00  0.0000E+00

      CONNECTED LAKE   TIME-STEP         STAGE-CHANGE          PERCENT
 LAKE    INFLUX      SURFACE AREA   TIME STEP  CUMULATIVE    DISCREPANCY
   1   1.3444E+05     6.7500E+06  -2.1841E-01 -3.8224E+00       0.000
   2   0.0000E+00     3.7500E+06  -1.9680E-01 -3.7493E+00       0.000
   3   2.2302E+04     1.7500E+06  -2.1841E-01 -3.8224E+00       0.000
   4  -1.5674E+05     1.5000E+06  -2.1841E-01 -3.8224E+00       0.000
 --------------------------------------------------------------------------------



            CUMULATIVE HYDROLOGIC BUDGET SUMMARIES FOR SIMULATED LAKES
     (ALL FLUID FLUXES ARE SUMS OF VOLUMES ADDED TO THE LAKE SINCE INITIAL TIME)
     ---------------------------------------------------------------------------
 LAKE       PRECIP       EVAP       RUNOFF
   1     0.0000E+00  2.8281E+07  0.0000E+00
   2     0.0000E+00  1.5711E+07  0.0000E+00
   3     0.0000E+00  7.3320E+06  0.0000E+00
   4     0.0000E+00  6.2846E+06  0.0000E+00

            GROUND WATER            SURFACE WATER
 LAKE    INFLOW     OUTFLOW      INFLOW     OUTFLOW
   1  1.6896E+06  4.1836E+05  0.0000E+00  0.0000E+00
   2  2.0644E+06  1.3339E+05  0.0000E+00  0.0000E+00
   3  4.5811E+05  1.1509E+05  0.0000E+00  0.0000E+00
   4  1.8057E+06  2.5494E+04  0.0000E+00  0.0000E+00

         WATER    CONNECTED LAKE   CHANGE       PERCENT
 LAKE     USE         INFLUX       IN VOL.    DISCREPANCY
   1   0.0000E+00   1.2085E+06  -2.5801E+07      0.000
   2   0.0000E+00  -2.7924E+05  -1.4060E+07      0.000
   3   0.0000E+00   2.9988E+05  -6.6891E+06      0.000
   4   0.0000E+00  -1.2291E+06  -5.7335E+06      0.000
 --------------------------------------------------------------------------------


   1 CONNECTED LAKE SET

   3 LAKES:    1  3  4
 
 SOLVING FOR HEAD 
    12 ITERATIONS FOR TIME STEP  22 IN STRESS PERIOD    1

 HEAD/DRAWDOWN PRINTOUT FLAG = 0     TOTAL BUDGET PRINTOUT FLAG = 0
 CELL-BY-CELL FLOW TERM FLAG = 1

 OUTPUT FLAGS FOR ALL LAYERS ARE THE SAME:
   HEAD    DRAWDOWN  HEAD  DRAWDOWN
 PRINTOUT  PRINTOUT  SAVE    SAVE
 ----------------------------------
     0         0       0       0

 --------------------------------------------------------------------------------
 TIME STEP  22     NUMBER OF CONNECTED LAKES IS  3     TOTAL AREA =  0.100000000D+08



           SURFACE       SILL   WATER BUDGET  STAGE  CORRECTED   LAKE VOLUME
  LAKE       AREA      ELEVATION   STAGE   CORRECTION  STAGE     CORRECTION
 --------------------------------------------------------------------------------

   1     0.67500E+07 -99999.00    110.93      0.02    110.96    0.14762E+06
 --------------------------------------------------------------------------------

   3     0.17500E+07    110.00    110.94      0.01    110.96     23757.    
 --------------------------------------------------------------------------------

   4     0.15000E+07    108.00    111.07     -0.11    110.96   -0.17137E+06


     0  LAKE CELLS ARE DRY.

 PERIOD     1     TIME STEP    22     TIME STEP LENGTH  6.5970E+00
 PERIOD TIME  1.0829E+02     TOTAL SIMULATION TIME  1.0829E+02


                 HYDROLOGIC BUDGET SUMMARIES FOR SIMULATED LAKES
     (ALL FLUID FLUXES ARE VOLUMES ADDED TO THE LAKE DURING PRESENT TIME STEP)
     -------------------------------------------------------------------------
 LAKE    STAGE         VOLUME     VOL.CHANGE      PRECIP     EVAPORATION        RUNOFF
   1   110.9558     5.4200E+07   -1.4977E+06    0.0000E+00    1.8346E+06    0.0000E+00
   2   111.0532     2.5199E+07   -7.4063E+05    0.0000E+00    1.0192E+06    0.0000E+00
   3   110.9558     1.6922E+07   -3.8830E+05    0.0000E+00    4.7564E+05    0.0000E+00
   4   110.9558     1.5933E+07   -3.3282E+05    0.0000E+00    4.0769E+05    0.0000E+00

            GROUND WATER            SURFACE WATER        WATER
 LAKE    INFLOW     OUTFLOW      INFLOW     OUTFLOW       USE
   1  1.9802E+05  8.7048E+03  0.0000E+00  0.0000E+00  0.0000E+00
   2  2.8438E+05  5.7717E+03  0.0000E+00  0.0000E+00  0.0000E+00
   3  6.4079E+04  4.9257E+02  0.0000E+00  0.0000E+00  0.0000E+00
   4  2.4664E+05  3.9595E+02  0.0000E+00  0.0000E+00  0.0000E+00

      CONNECTED LAKE   TIME-STEP         STAGE-CHANGE          PERCENT
 LAKE    INFLUX      SURFACE AREA   TIME STEP  CUMULATIVE    DISCREPANCY
   1   1.4762E+05     6.7500E+06  -2.2189E-01 -4.0442E+00       0.000
   2   0.0000E+00     3.7500E+06  -1.9750E-01 -3.9468E+00       0.000
   3   2.3757E+04     1.7500E+06  -2.2189E-01 -4.0442E+00       0.000
   4  -1.7137E+05     1.5000E+06  -2.2188E-01 -4.0442E+00       0.000
 --------------------------------------------------------------------------------



            CUMULATIVE HYDROLOGIC BUDGET SUMMARIES FOR SIMULATED LAKES
     (ALL FLUID FLUXES ARE SUMS OF VOLUMES ADDED TO THE LAKE SINCE INITIAL TIME)
     ---------------------------------------------------------------------------
 LAKE       PRECIP       EVAP       RUNOFF
   1     0.0000E+00  3.0115E+07  0.0000E+00
   2     0.0000E+00  1.6731E+07  0.0000E+00
   3     0.0000E+00  7.8077E+06  0.0000E+00
   4     0.0000E+00  6.6923E+06  0.0000E+00

            GROUND WATER            SURFACE WATER
 LAKE    INFLOW     OUTFLOW      INFLOW     OUTFLOW
   1  1.8876E+06  4.2707E+05  0.0000E+00  0.0000E+00
   2  2.3488E+06  1.3916E+05  0.0000E+00  0.0000E+00
   3  5.2218E+05  1.1558E+05  0.0000E+00  0.0000E+00
   4  2.0523E+06  2.5890E+04  0.0000E+00  0.0000E+00

         WATER    CONNECTED LAKE   CHANGE       PERCENT
 LAKE     USE         INFLUX       IN VOL.    DISCREPANCY
   1   0.0000E+00   1.3561E+06  -2.7299E+07      0.000
   2   0.0000E+00  -2.7924E+05  -1.4800E+07      0.000
   3   0.0000E+00   3.2363E+05  -7.0774E+06      0.000
   4   0.0000E+00  -1.4005E+06  -6.0664E+06      0.000
 --------------------------------------------------------------------------------


   1 CONNECTED LAKE SET

   3 LAKES:    1  3  4
 
 SOLVING FOR HEAD 
    12 ITERATIONS FOR TIME STEP  23 IN STRESS PERIOD    1

 HEAD/DRAWDOWN PRINTOUT FLAG = 0     TOTAL BUDGET PRINTOUT FLAG = 0
 CELL-BY-CELL FLOW TERM FLAG = 1

 OUTPUT FLAGS FOR ALL LAYERS ARE THE SAME:
   HEAD    DRAWDOWN  HEAD  DRAWDOWN
 PRINTOUT  PRINTOUT  SAVE    SAVE
 ----------------------------------
     0         0       0       0

 --------------------------------------------------------------------------------
 TIME STEP  23     NUMBER OF CONNECTED LAKES IS  3     TOTAL AREA =  0.100000000D+08



           SURFACE       SILL   WATER BUDGET  STAGE  CORRECTED   LAKE VOLUME
  LAKE       AREA      ELEVATION   STAGE   CORRECTION  STAGE     CORRECTION
 --------------------------------------------------------------------------------

   1     0.67500E+07 -99999.00    110.71      0.02    110.73    0.16140E+06
 --------------------------------------------------------------------------------

   3     0.17500E+07    110.00    110.72      0.01    110.73     25250.    
 --------------------------------------------------------------------------------

   4     0.15000E+07    108.00    110.85     -0.12    110.73   -0.18665E+06


     0  LAKE CELLS ARE DRY.

 PERIOD     1     TIME STEP    23     TIME STEP LENGTH  6.7949E+00
 PERIOD TIME  1.1508E+02     TOTAL SIMULATION TIME  1.1508E+02


                 HYDROLOGIC BUDGET SUMMARIES FOR SIMULATED LAKES
     (ALL FLUID FLUXES ARE VOLUMES ADDED TO THE LAKE DURING PRESENT TIME STEP)
     -------------------------------------------------------------------------
 LAKE    STAGE         VOLUME     VOL.CHANGE      PRECIP     EVAPORATION        RUNOFF
   1   110.7304     5.2679E+07   -1.5211E+06    0.0000E+00    1.8897E+06    0.0000E+00
   2   110.8554     2.4457E+07   -7.4189E+05    0.0000E+00    1.0498E+06    0.0000E+00
   3   110.7304     1.6528E+07   -3.9438E+05    0.0000E+00    4.8991E+05    0.0000E+00
   4   110.7304     1.5595E+07   -3.3804E+05    0.0000E+00    4.1992E+05    0.0000E+00

            GROUND WATER            SURFACE WATER        WATER
 LAKE    INFLOW     OUTFLOW      INFLOW     OUTFLOW       USE
   1  2.1374E+05  6.6361E+03  0.0000E+00  0.0000E+00  0.0000E+00
   2  3.1372E+05  5.7996E+03  0.0000E+00  0.0000E+00  0.0000E+00
   3  7.0664E+04  3.8111E+02  0.0000E+00  0.0000E+00  0.0000E+00
   4  2.6881E+05  2.7770E+02  0.0000E+00  0.0000E+00  0.0000E+00

      CONNECTED LAKE   TIME-STEP         STAGE-CHANGE          PERCENT
 LAKE    INFLUX      SURFACE AREA   TIME STEP  CUMULATIVE    DISCREPANCY
   1   1.6140E+05     6.7500E+06  -2.2536E-01 -4.2696E+00       0.000
   2   0.0000E+00     3.7500E+06  -1.9784E-01 -4.1446E+00       0.000
   3   2.5250E+04     1.7500E+06  -2.2536E-01 -4.2696E+00       0.000
   4  -1.8665E+05     1.5000E+06  -2.2536E-01 -4.2696E+00       0.000
 --------------------------------------------------------------------------------



            CUMULATIVE HYDROLOGIC BUDGET SUMMARIES FOR SIMULATED LAKES
     (ALL FLUID FLUXES ARE SUMS OF VOLUMES ADDED TO THE LAKE SINCE INITIAL TIME)
     ---------------------------------------------------------------------------
 LAKE       PRECIP       EVAP       RUNOFF
   1     0.0000E+00  3.2005E+07  0.0000E+00
   2     0.0000E+00  1.7781E+07  0.0000E+00
   3     0.0000E+00  8.2976E+06  0.0000E+00
   4     0.0000E+00  7.1122E+06  0.0000E+00

            GROUND WATER            SURFACE WATER
 LAKE    INFLOW     OUTFLOW      INFLOW     OUTFLOW
   1  2.1013E+06  4.3370E+05  0.0000E+00  0.0000E+00
   2  2.6625E+06  1.4496E+05  0.0000E+00  0.0000E+00
   3  5.9285E+05  1.1596E+05  0.0000E+00  0.0000E+00
   4  2.3211E+06  2.6168E+04  0.0000E+00  0.0000E+00

         WATER    CONNECTED LAKE   CHANGE       PERCENT
 LAKE     USE         INFLUX       IN VOL.    DISCREPANCY
   1   0.0000E+00   1.5175E+06  -2.8820E+07      0.000
   2   0.0000E+00  -2.7924E+05  -1.5542E+07      0.000
   3   0.0000E+00   3.4888E+05  -7.4718E+06      0.000
   4   0.0000E+00  -1.5871E+06  -6.4044E+06      0.000
 --------------------------------------------------------------------------------


   1 CONNECTED LAKE SET

   3 LAKES:    1  3  4
 
 SOLVING FOR HEAD 
    13 ITERATIONS FOR TIME STEP  24 IN STRESS PERIOD    1

 HEAD/DRAWDOWN PRINTOUT FLAG = 0     TOTAL BUDGET PRINTOUT FLAG = 0
 CELL-BY-CELL FLOW TERM FLAG = 1

 OUTPUT FLAGS FOR ALL LAYERS ARE THE SAME:
   HEAD    DRAWDOWN  HEAD  DRAWDOWN
 PRINTOUT  PRINTOUT  SAVE    SAVE
 ----------------------------------
     0         0       0       0

 --------------------------------------------------------------------------------
 TIME STEP  24     NUMBER OF CONNECTED LAKES IS  3     TOTAL AREA =  0.100000000D+08



           SURFACE       SILL   WATER BUDGET  STAGE  CORRECTED   LAKE VOLUME
  LAKE       AREA      ELEVATION   STAGE   CORRECTION  STAGE     CORRECTION
 --------------------------------------------------------------------------------

   1     0.67500E+07 -99999.00    110.48      0.03    110.50    0.17576E+06
 --------------------------------------------------------------------------------

   3     0.17500E+07    110.00    110.49      0.02    110.50     26786.    
 --------------------------------------------------------------------------------

   4     0.15000E+07    108.00    110.64     -0.14    110.50   -0.20255E+06


     0  LAKE CELLS ARE DRY.

 PERIOD     1     TIME STEP    24     TIME STEP LENGTH  6.9987E+00
 PERIOD TIME  1.2208E+02     TOTAL SIMULATION TIME  1.2208E+02


                 HYDROLOGIC BUDGET SUMMARIES FOR SIMULATED LAKES
     (ALL FLUID FLUXES ARE VOLUMES ADDED TO THE LAKE DURING PRESENT TIME STEP)
     -------------------------------------------------------------------------
 LAKE    STAGE         VOLUME     VOL.CHANGE      PRECIP     EVAPORATION        RUNOFF
   1   110.5015     5.1134E+07   -1.5447E+06    0.0000E+00    1.9463E+06    0.0000E+00
   2   110.6576     2.3716E+07   -7.4179E+05    0.0000E+00    1.0813E+06    0.0000E+00
   3   110.5015     1.6127E+07   -4.0049E+05    0.0000E+00    5.0461E+05    0.0000E+00
   4   110.5015     1.5252E+07   -3.4328E+05    0.0000E+00    4.3252E+05    0.0000E+00

            GROUND WATER            SURFACE WATER        WATER
 LAKE    INFLOW     OUTFLOW      INFLOW     OUTFLOW       USE
   1  2.3023E+05  4.3866E+03  0.0000E+00  0.0000E+00  0.0000E+00
   2  3.4540E+05  5.8873E+03  0.0000E+00  0.0000E+00  0.0000E+00
   3  7.7594E+04  2.6615E+02  0.0000E+00  0.0000E+00  0.0000E+00
   4  2.9203E+05  2.4481E+02  0.0000E+00  0.0000E+00  0.0000E+00

      CONNECTED LAKE   TIME-STEP         STAGE-CHANGE          PERCENT
 LAKE    INFLUX      SURFACE AREA   TIME STEP  CUMULATIVE    DISCREPANCY
   1   1.7576E+05     6.7500E+06  -2.2886E-01 -4.4985E+00       0.000
   2   0.0000E+00     3.7500E+06  -1.9781E-01 -4.3424E+00       0.000
   3   2.6786E+04     1.7500E+06  -2.2886E-01 -4.4985E+00       0.000
   4  -2.0255E+05     1.5000E+06  -2.2886E-01 -4.4985E+00       0.000
 --------------------------------------------------------------------------------



            CUMULATIVE HYDROLOGIC BUDGET SUMMARIES FOR SIMULATED LAKES
     (ALL FLUID FLUXES ARE SUMS OF VOLUMES ADDED TO THE LAKE SINCE INITIAL TIME)
     ---------------------------------------------------------------------------
 LAKE       PRECIP       EVAP       RUNOFF
   1     0.0000E+00  3.3951E+07  0.0000E+00
   2     0.0000E+00  1.8862E+07  0.0000E+00
   3     0.0000E+00  8.8022E+06  0.0000E+00
   4     0.0000E+00  7.5447E+06  0.0000E+00

            GROUND WATER            SURFACE WATER
 LAKE    INFLOW     OUTFLOW      INFLOW     OUTFLOW
   1  2.3315E+06  4.3809E+05  0.0000E+00  0.0000E+00
   2  3.0079E+06  1.5085E+05  0.0000E+00  0.0000E+00
   3  6.7044E+05  1.1623E+05  0.0000E+00  0.0000E+00
   4  2.6132E+06  2.6412E+04  0.0000E+00  0.0000E+00

         WATER    CONNECTED LAKE   CHANGE       PERCENT
 LAKE     USE         INFLUX       IN VOL.    DISCREPANCY
   1   0.0000E+00   1.6933E+06  -3.0365E+07      0.000
   2   0.0000E+00  -2.7924E+05  -1.6284E+07      0.000
   3   0.0000E+00   3.7567E+05  -7.8723E+06      0.000
   4   0.0000E+00  -1.7897E+06  -6.7477E+06      0.000
 --------------------------------------------------------------------------------


   1 CONNECTED LAKE SET

   3 LAKES:    1  3  4
 
 SOLVING FOR HEAD 
    13 ITERATIONS FOR TIME STEP  25 IN STRESS PERIOD    1

 HEAD/DRAWDOWN PRINTOUT FLAG = 0     TOTAL BUDGET PRINTOUT FLAG = 0
 CELL-BY-CELL FLOW TERM FLAG = 1

 OUTPUT FLAGS FOR ALL LAYERS ARE THE SAME:
   HEAD    DRAWDOWN  HEAD  DRAWDOWN
 PRINTOUT  PRINTOUT  SAVE    SAVE
 ----------------------------------
     0         0       0       0

 --------------------------------------------------------------------------------
 TIME STEP  25     NUMBER OF CONNECTED LAKES IS  3     TOTAL AREA =  0.100000000D+08



           SURFACE       SILL   WATER BUDGET  STAGE  CORRECTED   LAKE VOLUME
  LAKE       AREA      ELEVATION   STAGE   CORRECTION  STAGE     CORRECTION
 --------------------------------------------------------------------------------

   1     0.67500E+07 -99999.00    110.24      0.03    110.27    0.19074E+06
 --------------------------------------------------------------------------------

   3     0.17500E+07    110.00    110.25      0.02    110.27     28326.    
 --------------------------------------------------------------------------------

   4     0.15000E+07    108.00    110.42     -0.15    110.27   -0.21907E+06


     0  LAKE CELLS ARE DRY.

 PERIOD     1     TIME STEP    25     TIME STEP LENGTH  7.2087E+00
 PERIOD TIME  1.2929E+02     TOTAL SIMULATION TIME  1.2929E+02


                 HYDROLOGIC BUDGET SUMMARIES FOR SIMULATED LAKES
     (ALL FLUID FLUXES ARE VOLUMES ADDED TO THE LAKE DURING PRESENT TIME STEP)
     -------------------------------------------------------------------------
 LAKE    STAGE         VOLUME     VOL.CHANGE      PRECIP     EVAPORATION        RUNOFF
   1   110.2692     4.9566E+07   -1.5682E+06    0.0000E+00    2.0047E+06    0.0000E+00
   2   110.4602     2.2975E+07   -7.4014E+05    0.0000E+00    1.1137E+06    0.0000E+00
   3   110.2692     1.5721E+07   -4.0658E+05    0.0000E+00    5.1975E+05    0.0000E+00
   4   110.2692     1.4904E+07   -3.4849E+05    0.0000E+00    4.4550E+05    0.0000E+00

            GROUND WATER            SURFACE WATER        WATER
 LAKE    INFLOW     OUTFLOW      INFLOW     OUTFLOW       USE
   1  2.4769E+05  1.8982E+03  0.0000E+00  0.0000E+00  0.0000E+00
   2  3.7963E+05  6.0295E+03  0.0000E+00  0.0000E+00  0.0000E+00
   3  8.4992E+04  1.4771E+02  0.0000E+00  0.0000E+00  0.0000E+00
   4  3.1633E+05  2.6558E+02  0.0000E+00  0.0000E+00  0.0000E+00

      CONNECTED LAKE   TIME-STEP         STAGE-CHANGE          PERCENT
 LAKE    INFLUX      SURFACE AREA   TIME STEP  CUMULATIVE    DISCREPANCY
   1   1.9074E+05     6.7500E+06  -2.3233E-01 -4.7308E+00       0.000
   2   0.0000E+00     3.7500E+06  -1.9737E-01 -4.5398E+00       0.000
   3   2.8326E+04     1.7500E+06  -2.3233E-01 -4.7308E+00       0.000
   4  -2.1907E+05     1.5000E+06  -2.3233E-01 -4.7308E+00       0.000
 --------------------------------------------------------------------------------



            CUMULATIVE HYDROLOGIC BUDGET SUMMARIES FOR SIMULATED LAKES
     (ALL FLUID FLUXES ARE SUMS OF VOLUMES ADDED TO THE LAKE SINCE INITIAL TIME)
     ---------------------------------------------------------------------------
 LAKE       PRECIP       EVAP       RUNOFF
   1     0.0000E+00  3.5956E+07  0.0000E+00
   2     0.0000E+00  1.9976E+07  0.0000E+00
   3     0.0000E+00  9.3219E+06  0.0000E+00
   4     0.0000E+00  7.9902E+06  0.0000E+00

            GROUND WATER            SURFACE WATER
 LAKE    INFLOW     OUTFLOW      INFLOW     OUTFLOW
   1  2.5792E+06  4.3999E+05  0.0000E+00  0.0000E+00
   2  3.3876E+06  1.5688E+05  0.0000E+00  0.0000E+00
   3  7.5543E+05  1.1637E+05  0.0000E+00  0.0000E+00
   4  2.9295E+06  2.6678E+04  0.0000E+00  0.0000E+00

         WATER    CONNECTED LAKE   CHANGE       PERCENT
 LAKE     USE         INFLUX       IN VOL.    DISCREPANCY
   1   0.0000E+00   1.8840E+06  -3.1933E+07      0.000
   2   0.0000E+00  -2.7924E+05  -1.7024E+07      0.000
   3   0.0000E+00   4.0399E+05  -8.2789E+06      0.000
   4   0.0000E+00  -2.0087E+06  -7.0962E+06      0.000
 --------------------------------------------------------------------------------


   1 CONNECTED LAKE SET

   3 LAKES:    1  3  4
 
 SOLVING FOR HEAD 
    13 ITERATIONS FOR TIME STEP  26 IN STRESS PERIOD    1

 HEAD/DRAWDOWN PRINTOUT FLAG = 0     TOTAL BUDGET PRINTOUT FLAG = 0
 CELL-BY-CELL FLOW TERM FLAG = 1

 OUTPUT FLAGS FOR ALL LAYERS ARE THE SAME:
   HEAD    DRAWDOWN  HEAD  DRAWDOWN
 PRINTOUT  PRINTOUT  SAVE    SAVE
 ----------------------------------
     0         0       0       0

 --------------------------------------------------------------------------------
 TIME STEP  26     NUMBER OF CONNECTED LAKES IS  3     TOTAL AREA =  0.100000000D+08



           SURFACE       SILL   WATER BUDGET  STAGE  CORRECTED   LAKE VOLUME
  LAKE       AREA      ELEVATION   STAGE   CORRECTION  STAGE     CORRECTION
 --------------------------------------------------------------------------------

   1     0.67500E+07 -99999.00    110.00      0.03    110.03    0.20629E+06
 --------------------------------------------------------------------------------

   3     0.17500E+07    110.00    110.02      0.02    110.03     29887.    
 --------------------------------------------------------------------------------

   4     0.15000E+07    108.00    110.19     -0.16    110.03   -0.23618E+06


     0  LAKE CELLS ARE DRY.

 PERIOD     1     TIME STEP    26     TIME STEP LENGTH  7.4250E+00
 PERIOD TIME  1.3672E+02     TOTAL SIMULATION TIME  1.3672E+02


                 HYDROLOGIC BUDGET SUMMARIES FOR SIMULATED LAKES
     (ALL FLUID FLUXES ARE VOLUMES ADDED TO THE LAKE DURING PRESENT TIME STEP)
     -------------------------------------------------------------------------
 LAKE    STAGE         VOLUME     VOL.CHANGE      PRECIP     EVAPORATION        RUNOFF
   1   110.0334     4.7975E+07   -1.5916E+06    0.0000E+00    2.0649E+06    0.0000E+00
   2   110.2637     2.2238E+07   -7.3693E+05    0.0000E+00    1.1472E+06    0.0000E+00
   3   110.0334     1.5308E+07   -4.1265E+05    0.0000E+00    5.3534E+05    0.0000E+00
   4   110.0334     1.4550E+07   -3.5370E+05    0.0000E+00    4.5886E+05    0.0000E+00

            GROUND WATER            SURFACE WATER        WATER
 LAKE    INFLOW     OUTFLOW      INFLOW     OUTFLOW       USE
   1  2.6725E+05  2.9054E+02  0.0000E+00  0.0000E+00  0.0000E+00
   2  4.1647E+05  6.2476E+03  0.0000E+00  0.0000E+00  0.0000E+00
   3  9.2829E+04  2.8136E+01  0.0000E+00  0.0000E+00  0.0000E+00
   4  3.4163E+05  2.8798E+02  0.0000E+00  0.0000E+00  0.0000E+00

      CONNECTED LAKE   TIME-STEP         STAGE-CHANGE          PERCENT
 LAKE    INFLUX      SURFACE AREA   TIME STEP  CUMULATIVE    DISCREPANCY
   1   2.0629E+05     6.7500E+06  -2.3580E-01 -4.9666E+00       0.000
   2   0.0000E+00     3.7500E+06  -1.9652E-01 -4.7363E+00       0.000
   3   2.9887E+04     1.7500E+06  -2.3580E-01 -4.9666E+00       0.000
   4  -2.3618E+05     1.5000E+06  -2.3580E-01 -4.9666E+00       0.000
 --------------------------------------------------------------------------------



            CUMULATIVE HYDROLOGIC BUDGET SUMMARIES FOR SIMULATED LAKES
     (ALL FLUID FLUXES ARE SUMS OF VOLUMES ADDED TO THE LAKE SINCE INITIAL TIME)
     ---------------------------------------------------------------------------
 LAKE       PRECIP       EVAP       RUNOFF
   1     0.0000E+00  3.8021E+07  0.0000E+00
   2     0.0000E+00  2.1123E+07  0.0000E+00
   3     0.0000E+00  9.8573E+06  0.0000E+00
   4     0.0000E+00  8.4491E+06  0.0000E+00

            GROUND WATER            SURFACE WATER
 LAKE    INFLOW     OUTFLOW      INFLOW     OUTFLOW
   1  2.8465E+06  4.4028E+05  0.0000E+00  0.0000E+00
   2  3.8040E+06  1.6312E+05  0.0000E+00  0.0000E+00
   3  8.4826E+05  1.1640E+05  0.0000E+00  0.0000E+00
   4  3.2711E+06  2.6966E+04  0.0000E+00  0.0000E+00

         WATER    CONNECTED LAKE   CHANGE       PERCENT
 LAKE     USE         INFLUX       IN VOL.    DISCREPANCY
   1   0.0000E+00   2.0903E+06  -3.3524E+07      0.000
   2   0.0000E+00  -2.7924E+05  -1.7761E+07      0.000
   3   0.0000E+00   4.3388E+05  -8.6915E+06      0.000
   4   0.0000E+00  -2.2449E+06  -7.4499E+06      0.000
 --------------------------------------------------------------------------------


   1 CONNECTED LAKE SET

   3 LAKES:    1  3  4
 
 SOLVING FOR HEAD 
    14 ITERATIONS FOR TIME STEP  27 IN STRESS PERIOD    1

 HEAD/DRAWDOWN PRINTOUT FLAG = 0     TOTAL BUDGET PRINTOUT FLAG = 0
 CELL-BY-CELL FLOW TERM FLAG = 1

 OUTPUT FLAGS FOR ALL LAYERS ARE THE SAME:
   HEAD    DRAWDOWN  HEAD  DRAWDOWN
 PRINTOUT  PRINTOUT  SAVE    SAVE
 ----------------------------------
     0         0       0       0

 --------------------------------------------------------------------------------
 TIME STEP  27     NUMBER OF CONNECTED LAKES IS  2     TOTAL AREA =  0.325000000D+07



           SURFACE       SILL   WATER BUDGET  STAGE  CORRECTED   LAKE VOLUME
  LAKE       AREA      ELEVATION   STAGE   CORRECTION  STAGE     CORRECTION
 --------------------------------------------------------------------------------

   3     0.17500E+07 -99999.00    109.78      0.09    109.86    0.15122E+06
 --------------------------------------------------------------------------------

   4     0.15000E+07    108.00    109.96     -0.10    109.86   -0.15122E+06


     0  LAKE CELLS ARE DRY.

 PERIOD     1     TIME STEP    27     TIME STEP LENGTH  7.6477E+00
 PERIOD TIME  1.4436E+02     TOTAL SIMULATION TIME  1.4436E+02


                 HYDROLOGIC BUDGET SUMMARIES FOR SIMULATED LAKES
     (ALL FLUID FLUXES ARE VOLUMES ADDED TO THE LAKE DURING PRESENT TIME STEP)
     -------------------------------------------------------------------------
 LAKE    STAGE         VOLUME     VOL.CHANGE      PRECIP     EVAPORATION        RUNOFF
   1   109.7612     4.6137E+07   -1.8373E+06    0.0000E+00    2.1268E+06    0.0000E+00
   2   110.0685     2.1506E+07   -7.3206E+05    0.0000E+00    1.1816E+06    0.0000E+00
   3   109.8626     1.5009E+07   -2.9889E+05    0.0000E+00    5.5140E+05    0.0000E+00
   4   109.8626     1.4294E+07   -2.5619E+05    0.0000E+00    4.7263E+05    0.0000E+00

            GROUND WATER            SURFACE WATER        WATER
 LAKE    INFLOW     OUTFLOW      INFLOW     OUTFLOW       USE
   1  2.8972E+05  1.6313E+02  0.0000E+00  0.0000E+00  0.0000E+00
   2  4.5606E+05  6.5516E+03  0.0000E+00  0.0000E+00  0.0000E+00
   3  1.0131E+05  1.9136E+01  0.0000E+00  0.0000E+00  0.0000E+00
   4  3.6797E+05  3.1197E+02  0.0000E+00  0.0000E+00  0.0000E+00

      CONNECTED LAKE   TIME-STEP         STAGE-CHANGE          PERCENT
 LAKE    INFLUX      SURFACE AREA   TIME STEP  CUMULATIVE    DISCREPANCY
   1   0.0000E+00     6.7500E+06  -2.7219E-01 -5.2388E+00       0.000
   2   0.0000E+00     3.7500E+06  -1.9522E-01 -4.9315E+00       0.000
   3   1.5122E+05     1.7500E+06  -1.7079E-01 -5.1374E+00       0.000
   4  -1.5122E+05     1.5000E+06  -1.7080E-01 -5.1374E+00       0.000
 --------------------------------------------------------------------------------



            CUMULATIVE HYDROLOGIC BUDGET SUMMARIES FOR SIMULATED LAKES
     (ALL FLUID FLUXES ARE SUMS OF VOLUMES ADDED TO THE LAKE SINCE INITIAL TIME)
     ---------------------------------------------------------------------------
 LAKE       PRECIP       EVAP       RUNOFF
   1     0.0000E+00  4.0148E+07  0.0000E+00
   2     0.0000E+00  2.2304E+07  0.0000E+00
   3     0.0000E+00  1.0409E+07  0.0000E+00
   4     0.0000E+00  8.9217E+06  0.0000E+00

            GROUND WATER            SURFACE WATER
 LAKE    INFLOW     OUTFLOW      INFLOW     OUTFLOW
   1  3.1362E+06  4.4044E+05  0.0000E+00  0.0000E+00
   2  4.2601E+06  1.6968E+05  0.0000E+00  0.0000E+00
   3  9.4957E+05  1.1642E+05  0.0000E+00  0.0000E+00
   4  3.6391E+06  2.7278E+04  0.0000E+00  0.0000E+00

         WATER    CONNECTED LAKE   CHANGE       PERCENT
 LAKE     USE         INFLUX       IN VOL.    DISCREPANCY
   1   0.0000E+00   2.0903E+06  -3.5362E+07      0.000
   2   0.0000E+00  -2.7924E+05  -1.8493E+07      0.000
   3   0.0000E+00   5.8510E+05  -8.9904E+06      0.000
   4   0.0000E+00  -2.3961E+06  -7.7061E+06      0.000
 --------------------------------------------------------------------------------


   1 CONNECTED LAKE SET

   2 LAKES:    3  4
 
 SOLVING FOR HEAD 
    14 ITERATIONS FOR TIME STEP  28 IN STRESS PERIOD    1

 HEAD/DRAWDOWN PRINTOUT FLAG = 0     TOTAL BUDGET PRINTOUT FLAG = 0
 CELL-BY-CELL FLOW TERM FLAG = 1

 OUTPUT FLAGS FOR ALL LAYERS ARE THE SAME:
   HEAD    DRAWDOWN  HEAD  DRAWDOWN
 PRINTOUT  PRINTOUT  SAVE    SAVE
 ----------------------------------
     0         0       0       0

 --------------------------------------------------------------------------------
 TIME STEP  28     NUMBER OF CONNECTED LAKES IS  2     TOTAL AREA =  0.325000000D+07



           SURFACE       SILL   WATER BUDGET  STAGE  CORRECTED   LAKE VOLUME
  LAKE       AREA      ELEVATION   STAGE   CORRECTION  STAGE     CORRECTION
 --------------------------------------------------------------------------------

   3     0.17500E+07 -99999.00    109.60      0.09    109.69    0.16202E+06
 --------------------------------------------------------------------------------

   4     0.15000E+07    108.00    109.80     -0.11    109.69   -0.16202E+06


     0  LAKE CELLS ARE DRY.

 PERIOD     1     TIME STEP    28     TIME STEP LENGTH  7.8771E+00
 PERIOD TIME  1.5224E+02     TOTAL SIMULATION TIME  1.5224E+02


                 HYDROLOGIC BUDGET SUMMARIES FOR SIMULATED LAKES
     (ALL FLUID FLUXES ARE VOLUMES ADDED TO THE LAKE DURING PRESENT TIME STEP)
     -------------------------------------------------------------------------
 LAKE    STAGE         VOLUME     VOL.CHANGE      PRECIP     EVAPORATION        RUNOFF
   1   109.4841     4.4267E+07   -1.8706E+06    0.0000E+00    2.1906E+06    0.0000E+00
   2   109.8748     2.0780E+07   -7.2604E+05    0.0000E+00    1.2170E+06    0.0000E+00
   3   109.6902     1.4708E+07   -3.0162E+05    0.0000E+00    5.6794E+05    0.0000E+00
   4   109.6903     1.4035E+07   -2.5853E+05    0.0000E+00    4.8681E+05    0.0000E+00

            GROUND WATER            SURFACE WATER        WATER
 LAKE    INFLOW     OUTFLOW      INFLOW     OUTFLOW       USE
   1  3.2002E+05  0.0000E+00  0.0000E+00  0.0000E+00  0.0000E+00
   2  4.9831E+05  7.3382E+03  0.0000E+00  0.0000E+00  0.0000E+00
   3  1.0451E+05  2.1064E+02  0.0000E+00  0.0000E+00  0.0000E+00
   4  3.9064E+05  3.4648E+02  0.0000E+00  0.0000E+00  0.0000E+00

      CONNECTED LAKE   TIME-STEP         STAGE-CHANGE          PERCENT
 LAKE    INFLUX      SURFACE AREA   TIME STEP  CUMULATIVE    DISCREPANCY
   1   0.0000E+00     6.7500E+06  -2.7713E-01 -5.5159E+00       0.000
   2   0.0000E+00     3.7500E+06  -1.9361E-01 -5.1252E+00       0.000
   3   1.6202E+05     1.7500E+06  -1.7236E-01 -5.3098E+00       0.000
   4  -1.6202E+05     1.5000E+06  -1.7236E-01 -5.3097E+00       0.000
 --------------------------------------------------------------------------------



            CUMULATIVE HYDROLOGIC BUDGET SUMMARIES FOR SIMULATED LAKES
     (ALL FLUID FLUXES ARE SUMS OF VOLUMES ADDED TO THE LAKE SINCE INITIAL TIME)
     ---------------------------------------------------------------------------
 LAKE       PRECIP       EVAP       RUNOFF
   1     0.0000E+00  4.2338E+07  0.0000E+00
   2     0.0000E+00  2.3521E+07  0.0000E+00
   3     0.0000E+00  1.0977E+07  0.0000E+00
   4     0.0000E+00  9.4085E+06  0.0000E+00

            GROUND WATER            SURFACE WATER
 LAKE    INFLOW     OUTFLOW      INFLOW     OUTFLOW
   1  3.4562E+06  4.4044E+05  0.0000E+00  0.0000E+00
   2  4.7584E+06  1.7701E+05  0.0000E+00  0.0000E+00
   3  1.0541E+06  1.1663E+05  0.0000E+00  0.0000E+00
   4  4.0297E+06  2.7624E+04  0.0000E+00  0.0000E+00

         WATER    CONNECTED LAKE   CHANGE       PERCENT
 LAKE     USE         INFLUX       IN VOL.    DISCREPANCY
   1   0.0000E+00   2.0903E+06  -3.7232E+07      0.000
   2   0.0000E+00  -2.7924E+05  -1.9219E+07      0.000
   3   0.0000E+00   7.4712E+05  -9.2920E+06      0.000
   4   0.0000E+00  -2.5582E+06  -7.9646E+06      0.000
 --------------------------------------------------------------------------------


   1 CONNECTED LAKE SET

   2 LAKES:    3  4
 
 SOLVING FOR HEAD 
    14 ITERATIONS FOR TIME STEP  29 IN STRESS PERIOD    1

 HEAD/DRAWDOWN PRINTOUT FLAG = 0     TOTAL BUDGET PRINTOUT FLAG = 0
 CELL-BY-CELL FLOW TERM FLAG = 1

 OUTPUT FLAGS FOR ALL LAYERS ARE THE SAME:
   HEAD    DRAWDOWN  HEAD  DRAWDOWN
 PRINTOUT  PRINTOUT  SAVE    SAVE
 ----------------------------------
     0         0       0       0

 --------------------------------------------------------------------------------
 TIME STEP  29     NUMBER OF CONNECTED LAKES IS  2     TOTAL AREA =  0.325000000D+07



           SURFACE       SILL   WATER BUDGET  STAGE  CORRECTED   LAKE VOLUME
  LAKE       AREA      ELEVATION   STAGE   CORRECTION  STAGE     CORRECTION
 --------------------------------------------------------------------------------

   3     0.17500E+07 -99999.00    109.42      0.10    109.52    0.17316E+06
 --------------------------------------------------------------------------------

   4     0.15000E+07    108.00    109.63     -0.12    109.52   -0.17316E+06


     0  LAKE CELLS ARE DRY.

 PERIOD     1     TIME STEP    29     TIME STEP LENGTH  8.1134E+00
 PERIOD TIME  1.6036E+02     TOTAL SIMULATION TIME  1.6036E+02


                 HYDROLOGIC BUDGET SUMMARIES FOR SIMULATED LAKES
     (ALL FLUID FLUXES ARE VOLUMES ADDED TO THE LAKE DURING PRESENT TIME STEP)
     -------------------------------------------------------------------------
 LAKE    STAGE         VOLUME     VOL.CHANGE      PRECIP     EVAPORATION        RUNOFF
   1   109.2020     4.2363E+07   -1.9042E+06    0.0000E+00    2.2563E+06    0.0000E+00
   2   109.6833     2.0062E+07   -7.1849E+05    0.0000E+00    1.2535E+06    0.0000E+00
   3   109.5167     1.4404E+07   -3.0367E+05    0.0000E+00    5.8498E+05    0.0000E+00
   4   109.5167     1.3775E+07   -2.6029E+05    0.0000E+00    5.0141E+05    0.0000E+00

            GROUND WATER            SURFACE WATER        WATER
 LAKE    INFLOW     OUTFLOW      INFLOW     OUTFLOW       USE
   1  3.5216E+05  0.0000E+00  0.0000E+00  0.0000E+00  0.0000E+00
   2  5.4339E+05  8.3541E+03  0.0000E+00  0.0000E+00  0.0000E+00
   3  1.0865E+05  5.0413E+02  0.0000E+00  0.0000E+00  0.0000E+00
   4  4.1466E+05  3.8137E+02  0.0000E+00  0.0000E+00  0.0000E+00

      CONNECTED LAKE   TIME-STEP         STAGE-CHANGE          PERCENT
 LAKE    INFLUX      SURFACE AREA   TIME STEP  CUMULATIVE    DISCREPANCY
   1   0.0000E+00     6.7500E+06  -2.8211E-01 -5.7980E+00       0.000
   2   0.0000E+00     3.7500E+06  -1.9160E-01 -5.3167E+00       0.000
   3   1.7316E+05     1.7500E+06  -1.7353E-01 -5.4833E+00       0.000
   4  -1.7316E+05     1.5000E+06  -1.7353E-01 -5.4833E+00       0.000
 --------------------------------------------------------------------------------



            CUMULATIVE HYDROLOGIC BUDGET SUMMARIES FOR SIMULATED LAKES
     (ALL FLUID FLUXES ARE SUMS OF VOLUMES ADDED TO THE LAKE SINCE INITIAL TIME)
     ---------------------------------------------------------------------------
 LAKE       PRECIP       EVAP       RUNOFF
   1     0.0000E+00  4.4595E+07  0.0000E+00
   2     0.0000E+00  2.4775E+07  0.0000E+00
   3     0.0000E+00  1.1562E+07  0.0000E+00
   4     0.0000E+00  9.9099E+06  0.0000E+00

            GROUND WATER            SURFACE WATER
 LAKE    INFLOW     OUTFLOW      INFLOW     OUTFLOW
   1  3.8084E+06  4.4044E+05  0.0000E+00  0.0000E+00
   2  5.3018E+06  1.8537E+05  0.0000E+00  0.0000E+00
   3  1.1627E+06  1.1714E+05  0.0000E+00  0.0000E+00
   4  4.4444E+06  2.8006E+04  0.0000E+00  0.0000E+00

         WATER    CONNECTED LAKE   CHANGE       PERCENT
 LAKE     USE         INFLUX       IN VOL.    DISCREPANCY
   1   0.0000E+00   2.0903E+06  -3.9137E+07      0.000
   2   0.0000E+00  -2.7924E+05  -1.9938E+07      0.000
   3   0.0000E+00   9.2028E+05  -9.5957E+06      0.000
   4   0.0000E+00  -2.7313E+06  -8.2249E+06      0.000
 --------------------------------------------------------------------------------


   1 CONNECTED LAKE SET

   2 LAKES:    3  4
 
 SOLVING FOR HEAD 
    14 ITERATIONS FOR TIME STEP  30 IN STRESS PERIOD    1

 HEAD/DRAWDOWN PRINTOUT FLAG = 1     TOTAL BUDGET PRINTOUT FLAG = 1
 CELL-BY-CELL FLOW TERM FLAG = 1

 OUTPUT FLAGS FOR EACH LAYER:
          HEAD    DRAWDOWN  HEAD  DRAWDOWN
 LAYER  PRINTOUT  PRINTOUT  SAVE    SAVE
 -----------------------------------------
    1       0         0       0       0
    2       0         0       0       0
    3       0         0       0       0
    4       0         0       0       0
    5       1         0       0       0

 --------------------------------------------------------------------------------
 TIME STEP  30     NUMBER OF CONNECTED LAKES IS  2     TOTAL AREA =  0.325000000D+07



           SURFACE       SILL   WATER BUDGET  STAGE  CORRECTED   LAKE VOLUME
  LAKE       AREA      ELEVATION   STAGE   CORRECTION  STAGE     CORRECTION
 --------------------------------------------------------------------------------

   3     0.17500E+07 -99999.00    109.24      0.11    109.34    0.18464E+06
 --------------------------------------------------------------------------------

   4     0.15000E+07    108.00    109.47     -0.12    109.34   -0.18464E+06


     0  LAKE CELLS ARE DRY.

 PERIOD     1     TIME STEP    30     TIME STEP LENGTH  8.3568E+00
 PERIOD TIME  1.6871E+02     TOTAL SIMULATION TIME  1.6871E+02


                 HYDROLOGIC BUDGET SUMMARIES FOR SIMULATED LAKES
     (ALL FLUID FLUXES ARE VOLUMES ADDED TO THE LAKE DURING PRESENT TIME STEP)
     -------------------------------------------------------------------------
 LAKE    STAGE         VOLUME     VOL.CHANGE      PRECIP     EVAPORATION        RUNOFF
   1   108.9149     4.0425E+07   -1.9376E+06    0.0000E+00    2.3240E+06    0.0000E+00
   2   109.4941     1.9352E+07   -7.0936E+05    0.0000E+00    1.2911E+06    0.0000E+00
   3   109.3422     1.4099E+07   -3.0534E+05    0.0000E+00    6.0253E+05    0.0000E+00
   4   109.3422     1.3513E+07   -2.6172E+05    0.0000E+00    5.1645E+05    0.0000E+00

            GROUND WATER            SURFACE WATER        WATER
 LAKE    INFLOW     OUTFLOW      INFLOW     OUTFLOW       USE
   1  3.8640E+05  0.0000E+00  0.0000E+00  0.0000E+00  0.0000E+00
   2  5.9137E+05  9.5989E+03  0.0000E+00  0.0000E+00  0.0000E+00
   3  1.1401E+05  1.4553E+03  0.0000E+00  0.0000E+00  0.0000E+00
   4  4.3979E+05  4.1766E+02  0.0000E+00  0.0000E+00  0.0000E+00

      CONNECTED LAKE   TIME-STEP         STAGE-CHANGE          PERCENT
 LAKE    INFLUX      SURFACE AREA   TIME STEP  CUMULATIVE    DISCREPANCY
   1   0.0000E+00     6.7500E+06  -2.8706E-01 -6.0851E+00       0.000
   2   0.0000E+00     3.7500E+06  -1.8916E-01 -5.5059E+00       0.000
   3   1.8464E+05     1.7500E+06  -1.7448E-01 -5.6578E+00       0.000
   4  -1.8464E+05     1.5000E+06  -1.7448E-01 -5.6578E+00       0.000
 --------------------------------------------------------------------------------



            CUMULATIVE HYDROLOGIC BUDGET SUMMARIES FOR SIMULATED LAKES
     (ALL FLUID FLUXES ARE SUMS OF VOLUMES ADDED TO THE LAKE SINCE INITIAL TIME)
     ---------------------------------------------------------------------------
 LAKE       PRECIP       EVAP       RUNOFF
   1     0.0000E+00  4.6919E+07  0.0000E+00
   2     0.0000E+00  2.6066E+07  0.0000E+00
   3     0.0000E+00  1.2164E+07  0.0000E+00
   4     0.0000E+00  1.0426E+07  0.0000E+00

            GROUND WATER            SURFACE WATER
 LAKE    INFLOW     OUTFLOW      INFLOW     OUTFLOW
   1  4.1948E+06  4.4044E+05  0.0000E+00  0.0000E+00
   2  5.8932E+06  1.9497E+05  0.0000E+00  0.0000E+00
   3  1.2767E+06  1.1859E+05  0.0000E+00  0.0000E+00
   4  4.8842E+06  2.8423E+04  0.0000E+00  0.0000E+00

         WATER    CONNECTED LAKE   CHANGE       PERCENT
 LAKE     USE         INFLUX       IN VOL.    DISCREPANCY
   1   0.0000E+00   2.0903E+06  -4.1074E+07      0.000
   2   0.0000E+00  -2.7924E+05  -2.0647E+07      0.000
   3   0.0000E+00   1.1049E+06  -9.9011E+06      0.000
   4   0.0000E+00  -2.9160E+06  -8.4866E+06      0.000
 --------------------------------------------------------------------------------


   1 CONNECTED LAKE SET

   2 LAKES:    3  4
1
              HEAD IN LAYER   5 AT END OF TIME STEP  30 IN STRESS PERIOD    1
  ---------------------------------------------------------------------------

          1      2      3      4      5      6      7      8      9     10
 .........................................................................
   1   160.0  158.9  157.3  155.8  154.6  153.9  153.1  152.3  151.5  150.8
   2   160.0  153.5  148.5  145.3  143.7  142.8  142.0  141.2  140.5  139.8
   3   160.0  150.2  140.4  133.6  130.9  129.7  128.8  128.2  127.7  127.3
   4   160.0  148.6  135.1  125.7  122.4  121.0  120.2  119.8  119.5  119.3
   5   160.0  147.9  132.6  122.0  118.4  117.0  116.2  115.9  115.7  115.6
   6   160.0  147.7  131.6  120.2  115.6  114.1  113.5  113.2  113.0  112.9
   7   160.0  147.6  131.2  118.6  110.0  109.7  109.6  110.2  109.1  109.0
   8   160.0  147.6  131.1  118.2  109.8  109.5  109.5  109.1  108.9  108.9
   9   160.0  147.5  131.0  118.1  109.8  109.5  109.5  109.0  108.9  108.9
  10   160.0  147.6  131.1  118.2  109.8  109.5  109.5  109.1  108.9  108.9
  11   160.0  147.6  131.2  118.6  110.0  109.7  109.6  110.2  109.1  109.0
  12   160.0  147.7  131.6  120.2  115.6  114.1  113.5  113.2  113.0  112.9
  13   160.0  147.9  132.6  122.0  118.4  117.0  116.2  115.9  115.7  115.6
  14   160.0  148.6  135.1  125.7  122.4  121.0  120.2  119.8  119.5  119.3
  15   160.0  150.2  140.4  133.6  130.9  129.7  128.8  128.2  127.7  127.3
  16   160.0  153.5  148.5  145.3  143.7  142.8  142.0  141.2  140.5  139.8
  17   160.0  158.9  157.3  155.8  154.6  153.9  153.1  152.3  151.5  150.8
1
              HEAD IN LAYER   5 AT END OF TIME STEP  30 IN STRESS PERIOD    1
  ---------------------------------------------------------------------------

         11     12     13     14     15     16     17     18     19     20
 .........................................................................
   1   150.0  149.2  148.5  147.7  146.9  146.1  145.4  144.6  143.9  142.7
   2   139.1  138.4  137.7  137.1  136.4  135.8  135.2  134.7  134.3  134.0
   3   126.9  126.5  126.2  125.9  125.6  125.5  125.5  125.7  126.4  128.0
   4   119.1  119.0  118.9  118.8  118.9  119.0  119.4  120.1  121.5  124.4
   5   115.5  115.5  115.6  115.6  115.8  116.1  116.6  117.6  119.2  122.8
   6   112.9  112.9  113.1  113.5  113.8  114.2  114.8  115.8  117.6  121.8
   7   109.0  109.0  109.1  110.8  111.4  111.8  112.2  112.9  114.6  120.6
   8   108.9  108.9  108.9  109.2  109.3  109.3  109.7  109.6  109.9  119.6
   9   108.9  108.9  108.9  109.0  109.2  109.2  109.3  109.5  109.7  119.3
  10   108.9  108.9  108.9  109.2  109.3  109.4  109.7  109.6  110.0  119.6
  11   109.0  109.0  109.1  110.8  111.4  111.8  112.2  112.9  114.6  120.6
  12   112.9  112.9  113.1  113.5  113.8  114.2  114.8  115.8  117.6  121.8
  13   115.5  115.5  115.6  115.6  115.8  116.1  116.6  117.6  119.2  122.8
  14   119.1  119.0  118.9  118.8  118.9  119.0  119.4  120.1  121.5  124.4
  15   126.9  126.5  126.2  125.9  125.6  125.5  125.5  125.7  126.4  128.0
  16   139.1  138.4  137.7  137.1  136.4  135.8  135.2  134.7  134.3  134.0
  17   150.0  149.2  148.5  147.7  146.9  146.1  145.4  144.6  143.9  142.7
1
              HEAD IN LAYER   5 AT END OF TIME STEP  30 IN STRESS PERIOD    1
  ---------------------------------------------------------------------------

         21     22
 .................
   1   141.1  140.0
   2   135.3  140.0
   3   132.3  140.0
   4   131.2  140.0
   5   130.7  140.0
   6   130.5  140.0
   7   130.3  140.0
   8   130.2  140.0
   9   130.2  140.0
  10   130.2  140.0
  11   130.3  140.0
  12   130.5  140.0
  13   130.7  140.0
  14   131.2  140.0
  15   132.3  140.0
  16   135.3  140.0
  17   141.1  140.0
1
  VOLUMETRIC BUDGET FOR ENTIRE MODEL AT END OF TIME STEP 30 IN STRESS PERIOD   1
  ------------------------------------------------------------------------------

     CUMULATIVE VOLUMES      L**3       RATES FOR THIS TIME STEP      L**3/T
     ------------------                 ------------------------

           IN:                                      IN:
           ---                                      ---
             STORAGE =     7668287.0000               STORAGE =       37097.4414
       CONSTANT HEAD =   424776672.0000         CONSTANT HEAD =     1727430.7500
                  ET =           0.0000                    ET =           0.0000
            RECHARGE =           0.0000              RECHARGE =           0.0000
     SPECIFIED FLOWS =           0.0000       SPECIFIED FLOWS =           0.0000
       LAKE  SEEPAGE =      782425.0000         LAKE  SEEPAGE =        1372.7452

            TOTAL IN =   433227392.0000              TOTAL IN =     1765900.8750

          OUT:                                     OUT:
          ----                                     ----
             STORAGE =   364307552.0000               STORAGE =      919820.5000
       CONSTANT HEAD =           0.0000         CONSTANT HEAD =           0.0000
                  ET =    52676548.0000                    ET =      662833.7500
            RECHARGE =           0.0000              RECHARGE =           0.0000
     SPECIFIED FLOWS =           0.0000       SPECIFIED FLOWS =           0.0000
       LAKE  SEEPAGE =    16248886.0000         LAKE  SEEPAGE =      183271.8438

           TOTAL OUT =   433232992.0000             TOTAL OUT =     1765926.1250

            IN - OUT =       -5600.0000              IN - OUT =         -25.2500

 PERCENT DISCREPANCY =           0.00     PERCENT DISCREPANCY =           0.00






          TIME SUMMARY AT END OF TIME STEP  30 IN STRESS PERIOD    1
                    SECONDS     MINUTES      HOURS       DAYS        YEARS
                    -----------------------------------------------------------
   TIME STEP LENGTH 7.22032E+05  12034.      200.56      8.3568     2.28798E-02
 STRESS PERIOD TIME 1.45767E+07 2.42945E+05  4049.1      168.71     0.46191    
         TOTAL TIME 1.45767E+07 2.42945E+05  4049.1      168.71     0.46191    
1
 
 SOLVING FOR HEAD 
    14 ITERATIONS FOR TIME STEP  31 IN STRESS PERIOD    1

 HEAD/DRAWDOWN PRINTOUT FLAG = 0     TOTAL BUDGET PRINTOUT FLAG = 0
 CELL-BY-CELL FLOW TERM FLAG = 1

 OUTPUT FLAGS FOR ALL LAYERS ARE THE SAME:
   HEAD    DRAWDOWN  HEAD  DRAWDOWN
 PRINTOUT  PRINTOUT  SAVE    SAVE
 ----------------------------------
     0         0       0       0

 --------------------------------------------------------------------------------
 TIME STEP  31     NUMBER OF CONNECTED LAKES IS  2     TOTAL AREA =  0.325000000D+07



           SURFACE       SILL   WATER BUDGET  STAGE  CORRECTED   LAKE VOLUME
  LAKE       AREA      ELEVATION   STAGE   CORRECTION  STAGE     CORRECTION
 --------------------------------------------------------------------------------

   3     0.17500E+07 -99999.00    109.05      0.11    109.17    0.19647E+06
 --------------------------------------------------------------------------------

   4     0.15000E+07    108.00    109.30     -0.13    109.17   -0.19647E+06


     0  LAKE CELLS ARE DRY.

 PERIOD     1     TIME STEP    31     TIME STEP LENGTH  8.6076E+00
 PERIOD TIME  1.7732E+02     TOTAL SIMULATION TIME  1.7732E+02


                 HYDROLOGIC BUDGET SUMMARIES FOR SIMULATED LAKES
     (ALL FLUID FLUXES ARE VOLUMES ADDED TO THE LAKE DURING PRESENT TIME STEP)
     -------------------------------------------------------------------------
 LAKE    STAGE         VOLUME     VOL.CHANGE      PRECIP     EVAPORATION        RUNOFF
   1   108.6229     3.8454E+07   -1.9708E+06    0.0000E+00    2.3938E+06    0.0000E+00
   2   109.3078     1.8654E+07   -6.9865E+05    0.0000E+00    1.3299E+06    0.0000E+00
   3   109.1670     1.3792E+07   -3.0672E+05    0.0000E+00    6.2060E+05    0.0000E+00
   4   109.1670     1.3250E+07   -2.6290E+05    0.0000E+00    5.3195E+05    0.0000E+00

            GROUND WATER            SURFACE WATER        WATER
 LAKE    INFLOW     OUTFLOW      INFLOW     OUTFLOW       USE
   1  4.2296E+05  0.0000E+00  0.0000E+00  0.0000E+00  0.0000E+00
   2  6.4230E+05  1.1078E+04  0.0000E+00  0.0000E+00  0.0000E+00
   3  1.1991E+05  2.4940E+03  0.0000E+00  0.0000E+00  0.0000E+00
   4  4.6598E+05  4.5586E+02  0.0000E+00  0.0000E+00  0.0000E+00

      CONNECTED LAKE   TIME-STEP         STAGE-CHANGE          PERCENT
 LAKE    INFLUX      SURFACE AREA   TIME STEP  CUMULATIVE    DISCREPANCY
   1   0.0000E+00     6.7500E+06  -2.9198E-01 -6.3771E+00       0.000
   2   0.0000E+00     3.7500E+06  -1.8631E-01 -5.6922E+00       0.000
   3   1.9647E+05     1.7500E+06  -1.7527E-01 -5.8330E+00       0.000
   4  -1.9647E+05     1.5000E+06  -1.7527E-01 -5.8330E+00       0.000
 --------------------------------------------------------------------------------



            CUMULATIVE HYDROLOGIC BUDGET SUMMARIES FOR SIMULATED LAKES
     (ALL FLUID FLUXES ARE SUMS OF VOLUMES ADDED TO THE LAKE SINCE INITIAL TIME)
     ---------------------------------------------------------------------------
 LAKE       PRECIP       EVAP       RUNOFF
   1     0.0000E+00  4.9313E+07  0.0000E+00
   2     0.0000E+00  2.7396E+07  0.0000E+00
   3     0.0000E+00  1.2785E+07  0.0000E+00
   4     0.0000E+00  1.0958E+07  0.0000E+00

            GROUND WATER            SURFACE WATER
 LAKE    INFLOW     OUTFLOW      INFLOW     OUTFLOW
   1  4.6177E+06  4.4044E+05  0.0000E+00  0.0000E+00
   2  6.5355E+06  2.0605E+05  0.0000E+00  0.0000E+00
   3  1.3967E+06  1.2108E+05  0.0000E+00  0.0000E+00
   4  5.3502E+06  2.8879E+04  0.0000E+00  0.0000E+00

         WATER    CONNECTED LAKE   CHANGE       PERCENT
 LAKE     USE         INFLUX       IN VOL.    DISCREPANCY
   1   0.0000E+00   2.0903E+06  -4.3045E+07      0.000
   2   0.0000E+00  -2.7924E+05  -2.1346E+07      0.000
   3   0.0000E+00   1.3014E+06  -1.0208E+07      0.000
   4   0.0000E+00  -3.1124E+06  -8.7495E+06      0.000
 --------------------------------------------------------------------------------


   1 CONNECTED LAKE SET

   2 LAKES:    3  4
 
 SOLVING FOR HEAD 
    14 ITERATIONS FOR TIME STEP  32 IN STRESS PERIOD    1

 HEAD/DRAWDOWN PRINTOUT FLAG = 0     TOTAL BUDGET PRINTOUT FLAG = 0
 CELL-BY-CELL FLOW TERM FLAG = 1

 OUTPUT FLAGS FOR ALL LAYERS ARE THE SAME:
   HEAD    DRAWDOWN  HEAD  DRAWDOWN
 PRINTOUT  PRINTOUT  SAVE    SAVE
 ----------------------------------
     0         0       0       0

 --------------------------------------------------------------------------------
 TIME STEP  32     NUMBER OF CONNECTED LAKES IS  2     TOTAL AREA =  0.325000000D+07



           SURFACE       SILL   WATER BUDGET  STAGE  CORRECTED   LAKE VOLUME
  LAKE       AREA      ELEVATION   STAGE   CORRECTION  STAGE     CORRECTION
 --------------------------------------------------------------------------------

   3     0.17500E+07 -99999.00    108.87      0.12    108.99    0.20867E+06
 --------------------------------------------------------------------------------

   4     0.15000E+07    108.00    109.13     -0.14    108.99   -0.20867E+06


     0  LAKE CELLS ARE DRY.

 PERIOD     1     TIME STEP    32     TIME STEP LENGTH  8.8658E+00
 PERIOD TIME  1.8619E+02     TOTAL SIMULATION TIME  1.8619E+02


                 HYDROLOGIC BUDGET SUMMARIES FOR SIMULATED LAKES
     (ALL FLUID FLUXES ARE VOLUMES ADDED TO THE LAKE DURING PRESENT TIME STEP)
     -------------------------------------------------------------------------
 LAKE    STAGE         VOLUME     VOL.CHANGE      PRECIP     EVAPORATION        RUNOFF
   1   108.3261     3.6450E+07   -2.0038E+06    0.0000E+00    2.4656E+06    0.0000E+00
   2   109.1247     1.7967E+07   -6.8655E+05    0.0000E+00    1.3698E+06    0.0000E+00
   3   108.9910     1.3484E+07   -3.0788E+05    0.0000E+00    6.3922E+05    0.0000E+00
   4   108.9910     1.2986E+07   -2.6390E+05    0.0000E+00    5.4791E+05    0.0000E+00

            GROUND WATER            SURFACE WATER        WATER
 LAKE    INFLOW     OUTFLOW      INFLOW     OUTFLOW       USE
   1  4.6176E+05  0.0000E+00  0.0000E+00  0.0000E+00  0.0000E+00
   2  6.9605E+05  1.2840E+04  0.0000E+00  0.0000E+00  0.0000E+00
   3  1.2630E+05  3.6263E+03  0.0000E+00  0.0000E+00  0.0000E+00
   4  4.9317E+05  4.9634E+02  0.0000E+00  0.0000E+00  0.0000E+00

      CONNECTED LAKE   TIME-STEP         STAGE-CHANGE          PERCENT
 LAKE    INFLUX      SURFACE AREA   TIME STEP  CUMULATIVE    DISCREPANCY
   1   0.0000E+00     6.7500E+06  -2.9687E-01 -6.6739E+00       0.000
   2   0.0000E+00     3.7500E+06  -1.8308E-01 -5.8753E+00       0.000
   3   2.0867E+05     1.7500E+06  -1.7594E-01 -6.0090E+00       0.000
   4  -2.0867E+05     1.5000E+06  -1.7594E-01 -6.0090E+00       0.000
 --------------------------------------------------------------------------------



            CUMULATIVE HYDROLOGIC BUDGET SUMMARIES FOR SIMULATED LAKES
     (ALL FLUID FLUXES ARE SUMS OF VOLUMES ADDED TO THE LAKE SINCE INITIAL TIME)
     ---------------------------------------------------------------------------
 LAKE       PRECIP       EVAP       RUNOFF
   1     0.0000E+00  5.1778E+07  0.0000E+00
   2     0.0000E+00  2.8766E+07  0.0000E+00
   3     0.0000E+00  1.3424E+07  0.0000E+00
   4     0.0000E+00  1.1506E+07  0.0000E+00

            GROUND WATER            SURFACE WATER
 LAKE    INFLOW     OUTFLOW      INFLOW     OUTFLOW
   1  5.0795E+06  4.4044E+05  0.0000E+00  0.0000E+00
   2  7.2315E+06  2.1889E+05  0.0000E+00  0.0000E+00
   3  1.5230E+06  1.2471E+05  0.0000E+00  0.0000E+00
   4  5.8433E+06  2.9376E+04  0.0000E+00  0.0000E+00

         WATER    CONNECTED LAKE   CHANGE       PERCENT
 LAKE     USE         INFLUX       IN VOL.    DISCREPANCY
   1   0.0000E+00   2.0903E+06  -4.5049E+07      0.000
   2   0.0000E+00  -2.7924E+05  -2.2032E+07      0.000
   3   0.0000E+00   1.5101E+06  -1.0516E+07      0.000
   4   0.0000E+00  -3.3211E+06  -9.0134E+06      0.000
 --------------------------------------------------------------------------------


   1 CONNECTED LAKE SET

   2 LAKES:    3  4
 
 SOLVING FOR HEAD 
    14 ITERATIONS FOR TIME STEP  33 IN STRESS PERIOD    1

 HEAD/DRAWDOWN PRINTOUT FLAG = 0     TOTAL BUDGET PRINTOUT FLAG = 0
 CELL-BY-CELL FLOW TERM FLAG = 1

 OUTPUT FLAGS FOR ALL LAYERS ARE THE SAME:
   HEAD    DRAWDOWN  HEAD  DRAWDOWN
 PRINTOUT  PRINTOUT  SAVE    SAVE
 ----------------------------------
     0         0       0       0

 --------------------------------------------------------------------------------
 TIME STEP  33     NUMBER OF CONNECTED LAKES IS  2     TOTAL AREA =  0.325000000D+07



           SURFACE       SILL   WATER BUDGET  STAGE  CORRECTED   LAKE VOLUME
  LAKE       AREA      ELEVATION   STAGE   CORRECTION  STAGE     CORRECTION
 --------------------------------------------------------------------------------

   3     0.17500E+07 -99999.00    108.69      0.13    108.81    0.22122E+06
 --------------------------------------------------------------------------------

   4     0.15000E+07    108.00    108.96     -0.15    108.81   -0.22122E+06


     0  LAKE CELLS ARE DRY.

 PERIOD     1     TIME STEP    33     TIME STEP LENGTH  9.1318E+00
 PERIOD TIME  1.9532E+02     TOTAL SIMULATION TIME  1.9532E+02


                 HYDROLOGIC BUDGET SUMMARIES FOR SIMULATED LAKES
     (ALL FLUID FLUXES ARE VOLUMES ADDED TO THE LAKE DURING PRESENT TIME STEP)
     -------------------------------------------------------------------------
 LAKE    STAGE         VOLUME     VOL.CHANGE      PRECIP     EVAPORATION        RUNOFF
   1   108.0243     3.4414E+07   -2.0365E+06    0.0000E+00    2.5395E+06    0.0000E+00
   2   108.9452     1.7294E+07   -6.7311E+05    0.0000E+00    1.4109E+06    0.0000E+00
   3   108.8145     1.3175E+07   -3.0888E+05    0.0000E+00    6.5840E+05    0.0000E+00
   4   108.8145     1.2722E+07   -2.6476E+05    0.0000E+00    5.6434E+05    0.0000E+00

            GROUND WATER            SURFACE WATER        WATER
 LAKE    INFLOW     OUTFLOW      INFLOW     OUTFLOW       USE
   1  5.0305E+05  0.0000E+00  0.0000E+00  0.0000E+00  0.0000E+00
   2  7.5266E+05  1.4909E+04  0.0000E+00  0.0000E+00  0.0000E+00
   3  1.3315E+05  4.8561E+03  0.0000E+00  0.0000E+00  0.0000E+00
   4  5.2135E+05  5.3940E+02  0.0000E+00  0.0000E+00  0.0000E+00

      CONNECTED LAKE   TIME-STEP         STAGE-CHANGE          PERCENT
 LAKE    INFLUX      SURFACE AREA   TIME STEP  CUMULATIVE    DISCREPANCY
   1   0.0000E+00     6.7500E+06  -3.0171E-01 -6.9757E+00       0.000
   2   0.0000E+00     3.7500E+06  -1.7950E-01 -6.0548E+00       0.000
   3   2.2122E+05     1.7500E+06  -1.7651E-01 -6.1855E+00       0.000
   4  -2.2122E+05     1.5000E+06  -1.7651E-01 -6.1855E+00       0.000
 --------------------------------------------------------------------------------



            CUMULATIVE HYDROLOGIC BUDGET SUMMARIES FOR SIMULATED LAKES
     (ALL FLUID FLUXES ARE SUMS OF VOLUMES ADDED TO THE LAKE SINCE INITIAL TIME)
     ---------------------------------------------------------------------------
 LAKE       PRECIP       EVAP       RUNOFF
   1     0.0000E+00  5.4318E+07  0.0000E+00
   2     0.0000E+00  3.0176E+07  0.0000E+00
   3     0.0000E+00  1.4082E+07  0.0000E+00
   4     0.0000E+00  1.2071E+07  0.0000E+00

            GROUND WATER            SURFACE WATER
 LAKE    INFLOW     OUTFLOW      INFLOW     OUTFLOW
   1  5.5826E+06  4.4044E+05  0.0000E+00  0.0000E+00
   2  7.9842E+06  2.3379E+05  0.0000E+00  0.0000E+00
   3  1.6561E+06  1.2957E+05  0.0000E+00  0.0000E+00
   4  6.3647E+06  2.9915E+04  0.0000E+00  0.0000E+00

         WATER    CONNECTED LAKE   CHANGE       PERCENT
 LAKE     USE         INFLUX       IN VOL.    DISCREPANCY
   1   0.0000E+00   2.0903E+06  -4.7085E+07      0.000
   2   0.0000E+00  -2.7924E+05  -2.2705E+07      0.000
   3   0.0000E+00   1.7313E+06  -1.0825E+07      0.000
   4   0.0000E+00  -3.5423E+06  -9.2782E+06      0.000
 --------------------------------------------------------------------------------


   1 CONNECTED LAKE SET

   2 LAKES:    3  4
 
 SOLVING FOR HEAD 
    14 ITERATIONS FOR TIME STEP  34 IN STRESS PERIOD    1

 HEAD/DRAWDOWN PRINTOUT FLAG = 0     TOTAL BUDGET PRINTOUT FLAG = 0
 CELL-BY-CELL FLOW TERM FLAG = 1

 OUTPUT FLAGS FOR ALL LAYERS ARE THE SAME:
   HEAD    DRAWDOWN  HEAD  DRAWDOWN
 PRINTOUT  PRINTOUT  SAVE    SAVE
 ----------------------------------
     0         0       0       0

 --------------------------------------------------------------------------------
 TIME STEP  34     NUMBER OF CONNECTED LAKES IS  2     TOTAL AREA =  0.325000000D+07



           SURFACE       SILL   WATER BUDGET  STAGE  CORRECTED   LAKE VOLUME
  LAKE       AREA      ELEVATION   STAGE   CORRECTION  STAGE     CORRECTION
 --------------------------------------------------------------------------------

   3     0.17500E+07 -99999.00    108.50      0.13    108.64    0.23414E+06
 --------------------------------------------------------------------------------

   4     0.15000E+07    108.00    108.79     -0.16    108.64   -0.23414E+06


     0  LAKE CELLS ARE DRY.

 PERIOD     1     TIME STEP    34     TIME STEP LENGTH  9.4057E+00
 PERIOD TIME  2.0472E+02     TOTAL SIMULATION TIME  2.0472E+02


                 HYDROLOGIC BUDGET SUMMARIES FOR SIMULATED LAKES
     (ALL FLUID FLUXES ARE VOLUMES ADDED TO THE LAKE DURING PRESENT TIME STEP)
     -------------------------------------------------------------------------
 LAKE    STAGE         VOLUME     VOL.CHANGE      PRECIP     EVAPORATION        RUNOFF
   1   107.7179     3.2345E+07   -2.0687E+06    0.0000E+00    2.6157E+06    0.0000E+00
   2   108.7697     1.6636E+07   -6.5828E+05    0.0000E+00    1.4532E+06    0.0000E+00
   3   108.6375     1.2866E+07   -3.0974E+05    0.0000E+00    6.7815E+05    0.0000E+00
   4   108.6375     1.2456E+07   -2.6550E+05    0.0000E+00    5.8127E+05    0.0000E+00

            GROUND WATER            SURFACE WATER        WATER
 LAKE    INFLOW     OUTFLOW      INFLOW     OUTFLOW       USE
   1  5.4704E+05  0.0000E+00  0.0000E+00  0.0000E+00  0.0000E+00
   2  8.1220E+05  1.7299E+04  0.0000E+00  0.0000E+00  0.0000E+00
   3  1.4046E+05  6.1920E+03  0.0000E+00  0.0000E+00  0.0000E+00
   4  5.5050E+05  5.8536E+02  0.0000E+00  0.0000E+00  0.0000E+00

      CONNECTED LAKE   TIME-STEP         STAGE-CHANGE          PERCENT
 LAKE    INFLUX      SURFACE AREA   TIME STEP  CUMULATIVE    DISCREPANCY
   1   0.0000E+00     6.7500E+06  -3.0647E-01 -7.2821E+00       0.000
   2   0.0000E+00     3.7500E+06  -1.7554E-01 -6.2303E+00       0.000
   3   2.3414E+05     1.7500E+06  -1.7700E-01 -6.3625E+00       0.000
   4  -2.3414E+05     1.5000E+06  -1.7700E-01 -6.3625E+00       0.000
 --------------------------------------------------------------------------------



            CUMULATIVE HYDROLOGIC BUDGET SUMMARIES FOR SIMULATED LAKES
     (ALL FLUID FLUXES ARE SUMS OF VOLUMES ADDED TO THE LAKE SINCE INITIAL TIME)
     ---------------------------------------------------------------------------
 LAKE       PRECIP       EVAP       RUNOFF
   1     0.0000E+00  5.6933E+07  0.0000E+00
   2     0.0000E+00  3.1630E+07  0.0000E+00
   3     0.0000E+00  1.4761E+07  0.0000E+00
   4     0.0000E+00  1.2652E+07  0.0000E+00

            GROUND WATER            SURFACE WATER
 LAKE    INFLOW     OUTFLOW      INFLOW     OUTFLOW
   1  6.1296E+06  4.4044E+05  0.0000E+00  0.0000E+00
   2  8.7964E+06  2.5109E+05  0.0000E+00  0.0000E+00
   3  1.7966E+06  1.3576E+05  0.0000E+00  0.0000E+00
   4  6.9152E+06  3.0500E+04  0.0000E+00  0.0000E+00

         WATER    CONNECTED LAKE   CHANGE       PERCENT
 LAKE     USE         INFLUX       IN VOL.    DISCREPANCY
   1   0.0000E+00   2.0903E+06  -4.9154E+07      0.000
   2   0.0000E+00  -2.7924E+05  -2.3364E+07      0.000
   3   0.0000E+00   1.9654E+06  -1.1134E+07      0.000
   4   0.0000E+00  -3.7765E+06  -9.5437E+06      0.000
 --------------------------------------------------------------------------------


   1 CONNECTED LAKE SET

   2 LAKES:    3  4
 
 SOLVING FOR HEAD 
    14 ITERATIONS FOR TIME STEP  35 IN STRESS PERIOD    1

 HEAD/DRAWDOWN PRINTOUT FLAG = 0     TOTAL BUDGET PRINTOUT FLAG = 0
 CELL-BY-CELL FLOW TERM FLAG = 1

 OUTPUT FLAGS FOR ALL LAYERS ARE THE SAME:
   HEAD    DRAWDOWN  HEAD  DRAWDOWN
 PRINTOUT  PRINTOUT  SAVE    SAVE
 ----------------------------------
     0         0       0       0

 --------------------------------------------------------------------------------
 TIME STEP  35     NUMBER OF CONNECTED LAKES IS  2     TOTAL AREA =  0.325000000D+07



           SURFACE       SILL   WATER BUDGET  STAGE  CORRECTED   LAKE VOLUME
  LAKE       AREA      ELEVATION   STAGE   CORRECTION  STAGE     CORRECTION
 --------------------------------------------------------------------------------

   3     0.17500E+07 -99999.00    108.32      0.14    108.46    0.24742E+06
 --------------------------------------------------------------------------------

   4     0.15000E+07    108.00    108.63     -0.16    108.46   -0.24742E+06


     0  LAKE CELLS ARE DRY.

 PERIOD     1     TIME STEP    35     TIME STEP LENGTH  9.6879E+00
 PERIOD TIME  2.1441E+02     TOTAL SIMULATION TIME  2.1441E+02


                 HYDROLOGIC BUDGET SUMMARIES FOR SIMULATED LAKES
     (ALL FLUID FLUXES ARE VOLUMES ADDED TO THE LAKE DURING PRESENT TIME STEP)
     -------------------------------------------------------------------------
 LAKE    STAGE         VOLUME     VOL.CHANGE      PRECIP     EVAPORATION        RUNOFF
   1   107.4067     3.0245E+07   -2.1002E+06    0.0000E+00    2.6942E+06    0.0000E+00
   2   108.5984     1.5994E+07   -6.4208E+05    0.0000E+00    1.4968E+06    0.0000E+00
   3   108.4601     1.2555E+07   -3.1047E+05    0.0000E+00    6.9850E+05    0.0000E+00
   4   108.4601     1.2190E+07   -2.6612E+05    0.0000E+00    5.9871E+05    0.0000E+00

            GROUND WATER            SURFACE WATER        WATER
 LAKE    INFLOW     OUTFLOW      INFLOW     OUTFLOW       USE
   1  5.9404E+05  0.0000E+00  0.0000E+00  0.0000E+00  0.0000E+00
   2  8.7473E+05  2.0032E+04  0.0000E+00  0.0000E+00  0.0000E+00
   3  1.4824E+05  7.6349E+03  0.0000E+00  0.0000E+00  0.0000E+00
   4  5.8065E+05  6.3439E+02  0.0000E+00  0.0000E+00  0.0000E+00

      CONNECTED LAKE   TIME-STEP         STAGE-CHANGE          PERCENT
 LAKE    INFLUX      SURFACE AREA   TIME STEP  CUMULATIVE    DISCREPANCY
   1   0.0000E+00     6.7500E+06  -3.1113E-01 -7.5933E+00       0.000
   2   0.0000E+00     3.7500E+06  -1.7122E-01 -6.4016E+00       0.000
   3   2.4742E+05     1.7500E+06  -1.7741E-01 -6.5399E+00       0.000
   4  -2.4742E+05     1.5000E+06  -1.7741E-01 -6.5399E+00       0.000
 --------------------------------------------------------------------------------



            CUMULATIVE HYDROLOGIC BUDGET SUMMARIES FOR SIMULATED LAKES
     (ALL FLUID FLUXES ARE SUMS OF VOLUMES ADDED TO THE LAKE SINCE INITIAL TIME)
     ---------------------------------------------------------------------------
 LAKE       PRECIP       EVAP       RUNOFF
   1     0.0000E+00  5.9628E+07  0.0000E+00
   2     0.0000E+00  3.3126E+07  0.0000E+00
   3     0.0000E+00  1.5459E+07  0.0000E+00
   4     0.0000E+00  1.3251E+07  0.0000E+00

            GROUND WATER            SURFACE WATER
 LAKE    INFLOW     OUTFLOW      INFLOW     OUTFLOW
   1  6.7236E+06  4.4044E+05  0.0000E+00  0.0000E+00
   2  9.6711E+06  2.7113E+05  0.0000E+00  0.0000E+00
   3  1.9448E+06  1.4339E+05  0.0000E+00  0.0000E+00
   4  7.4958E+06  3.1135E+04  0.0000E+00  0.0000E+00

         WATER    CONNECTED LAKE   CHANGE       PERCENT
 LAKE     USE         INFLUX       IN VOL.    DISCREPANCY
   1   0.0000E+00   2.0903E+06  -5.1254E+07      0.000
   2   0.0000E+00  -2.7924E+05  -2.4006E+07      0.000
   3   0.0000E+00   2.2128E+06  -1.1445E+07      0.000
   4   0.0000E+00  -4.0239E+06  -9.8098E+06      0.000
 --------------------------------------------------------------------------------


   1 CONNECTED LAKE SET

   2 LAKES:    3  4
 
 SOLVING FOR HEAD 
    14 ITERATIONS FOR TIME STEP  36 IN STRESS PERIOD    1

 HEAD/DRAWDOWN PRINTOUT FLAG = 0     TOTAL BUDGET PRINTOUT FLAG = 0
 CELL-BY-CELL FLOW TERM FLAG = 1

 OUTPUT FLAGS FOR ALL LAYERS ARE THE SAME:
   HEAD    DRAWDOWN  HEAD  DRAWDOWN
 PRINTOUT  PRINTOUT  SAVE    SAVE
 ----------------------------------
     0         0       0       0

 --------------------------------------------------------------------------------
 TIME STEP  36     NUMBER OF CONNECTED LAKES IS  2     TOTAL AREA =  0.325000000D+07



           SURFACE       SILL   WATER BUDGET  STAGE  CORRECTED   LAKE VOLUME
  LAKE       AREA      ELEVATION   STAGE   CORRECTION  STAGE     CORRECTION
 --------------------------------------------------------------------------------

   3     0.17500E+07 -99999.00    108.13      0.15    108.28    0.26105E+06
 --------------------------------------------------------------------------------

   4     0.15000E+07    108.00    108.46     -0.17    108.28   -0.26105E+06


     0  LAKE CELLS ARE DRY.

 PERIOD     1     TIME STEP    36     TIME STEP LENGTH  9.9785E+00
 PERIOD TIME  2.2439E+02     TOTAL SIMULATION TIME  2.2439E+02


                 HYDROLOGIC BUDGET SUMMARIES FOR SIMULATED LAKES
     (ALL FLUID FLUXES ARE VOLUMES ADDED TO THE LAKE DURING PRESENT TIME STEP)
     -------------------------------------------------------------------------
 LAKE    STAGE         VOLUME     VOL.CHANGE      PRECIP     EVAPORATION        RUNOFF
   1   107.0908     2.8113E+07   -2.1324E+06    0.0000E+00    2.7750E+06    0.0000E+00
   2   108.4319     1.5369E+07   -6.2444E+05    0.0000E+00    1.5417E+06    0.0000E+00
   3   108.2824     1.2244E+07   -3.1104E+05    0.0000E+00    7.1945E+05    0.0000E+00
   4   108.2824     1.1923E+07   -2.6661E+05    0.0000E+00    6.1667E+05    0.0000E+00

            GROUND WATER            SURFACE WATER        WATER
 LAKE    INFLOW     OUTFLOW      INFLOW     OUTFLOW       USE
   1  6.4260E+05  0.0000E+00  0.0000E+00  0.0000E+00  0.0000E+00
   2  9.4029E+05  2.3056E+04  0.0000E+00  0.0000E+00  0.0000E+00
   3  1.5650E+05  9.1477E+03  0.0000E+00  0.0000E+00  0.0000E+00
   4  6.1180E+05  6.8666E+02  0.0000E+00  0.0000E+00  0.0000E+00

      CONNECTED LAKE   TIME-STEP         STAGE-CHANGE          PERCENT
 LAKE    INFLUX      SURFACE AREA   TIME STEP  CUMULATIVE    DISCREPANCY
   1   0.0000E+00     6.7500E+06  -3.1591E-01 -7.9092E+00       0.000
   2   0.0000E+00     3.7500E+06  -1.6652E-01 -6.5681E+00       0.000
   3   2.6105E+05     1.7500E+06  -1.7774E-01 -6.7176E+00       0.000
   4  -2.6105E+05     1.5000E+06  -1.7774E-01 -6.7176E+00       0.000
 --------------------------------------------------------------------------------



            CUMULATIVE HYDROLOGIC BUDGET SUMMARIES FOR SIMULATED LAKES
     (ALL FLUID FLUXES ARE SUMS OF VOLUMES ADDED TO THE LAKE SINCE INITIAL TIME)
     ---------------------------------------------------------------------------
 LAKE       PRECIP       EVAP       RUNOFF
   1     0.0000E+00  6.2403E+07  0.0000E+00
   2     0.0000E+00  3.4668E+07  0.0000E+00
   3     0.0000E+00  1.6178E+07  0.0000E+00
   4     0.0000E+00  1.3867E+07  0.0000E+00

            GROUND WATER            SURFACE WATER
 LAKE    INFLOW     OUTFLOW      INFLOW     OUTFLOW
   1  7.3662E+06  4.4044E+05  0.0000E+00  0.0000E+00
   2  1.0611E+07  2.9418E+05  0.0000E+00  0.0000E+00
   3  2.1013E+06  1.5254E+05  0.0000E+00  0.0000E+00
   4  8.1076E+06  3.1822E+04  0.0000E+00  0.0000E+00

         WATER    CONNECTED LAKE   CHANGE       PERCENT
 LAKE     USE         INFLUX       IN VOL.    DISCREPANCY
   1   0.0000E+00   2.0903E+06  -5.3387E+07      0.000
   2   0.0000E+00  -2.7924E+05  -2.4630E+07      0.000
   3   0.0000E+00   2.4739E+06  -1.1756E+07      0.000
   4   0.0000E+00  -4.2849E+06  -1.0076E+07      0.000
 --------------------------------------------------------------------------------


   1 CONNECTED LAKE SET

   2 LAKES:    3  4
 
 SOLVING FOR HEAD 
    17 ITERATIONS FOR TIME STEP  37 IN STRESS PERIOD    1

 HEAD/DRAWDOWN PRINTOUT FLAG = 0     TOTAL BUDGET PRINTOUT FLAG = 0
 CELL-BY-CELL FLOW TERM FLAG = 1

 OUTPUT FLAGS FOR ALL LAYERS ARE THE SAME:
   HEAD    DRAWDOWN  HEAD  DRAWDOWN
 PRINTOUT  PRINTOUT  SAVE    SAVE
 ----------------------------------
     0         0       0       0

 --------------------------------------------------------------------------------
 TIME STEP  37     NUMBER OF CONNECTED LAKES IS  2     TOTAL AREA =  0.325000000D+07



           SURFACE       SILL   WATER BUDGET  STAGE  CORRECTED   LAKE VOLUME
  LAKE       AREA      ELEVATION   STAGE   CORRECTION  STAGE     CORRECTION
 --------------------------------------------------------------------------------

   3     0.17500E+07 -99999.00    107.95      0.16    108.11    0.27326E+06
 --------------------------------------------------------------------------------

   4     0.15000E+07    108.00    108.29     -0.18    108.11   -0.27326E+06

     SECTIONS OF THE LAKE BOTTOM HAVE BECOME DRY.  THE DRYSECTIONS
     LIE ABOVE THE FOLLOWING 16 AQUIFER CELLS (LAYER,ROW,COLUMN):
     (  2,  9,  8)  (  2,  7,  9)  (  2,  8,  9)  (  2, 10,  9)  (  2, 11,  9)
     (  2,  7, 10)  (  2, 11, 10)  (  2,  7, 11)  (  2, 11, 11)  (  2,  7, 12)
     (  2, 11, 12)  (  2,  7, 13)  (  2,  8, 13)  (  2, 10, 13)  (  2, 11, 13)
     (  2,  9, 14)  (

 PERIOD     1     TIME STEP    37     TIME STEP LENGTH  1.0278E+01
 PERIOD TIME  2.3467E+02     TOTAL SIMULATION TIME  2.3467E+02


                 HYDROLOGIC BUDGET SUMMARIES FOR SIMULATED LAKES
     (ALL FLUID FLUXES ARE VOLUMES ADDED TO THE LAKE DURING PRESENT TIME STEP)
     -------------------------------------------------------------------------
 LAKE    STAGE         VOLUME     VOL.CHANGE      PRECIP     EVAPORATION        RUNOFF
   1   106.4128     2.5885E+07   -2.2276E+06    0.0000E+00    2.8583E+06    0.0000E+00
   2   108.2718     1.4769E+07   -6.0048E+05    0.0000E+00    1.5879E+06    0.0000E+00
   3   108.1055     1.1935E+07   -3.0948E+05    0.0000E+00    7.4103E+05    0.0000E+00
   4   108.1055     1.1658E+07   -2.6527E+05    0.0000E+00    6.3517E+05    0.0000E+00

            GROUND WATER            SURFACE WATER        WATER
 LAKE    INFLOW     OUTFLOW      INFLOW     OUTFLOW       USE
   1  6.3066E+05  0.0000E+00  0.0000E+00  0.0000E+00  0.0000E+00
   2  1.0101E+06  2.2613E+04  0.0000E+00  0.0000E+00  0.0000E+00
   3  1.6643E+05  8.1385E+03  0.0000E+00  0.0000E+00  0.0000E+00
   4  6.4390E+05  7.3712E+02  0.0000E+00  0.0000E+00  0.0000E+00

      CONNECTED LAKE   TIME-STEP         STAGE-CHANGE          PERCENT
 LAKE    INFLUX      SURFACE AREA   TIME STEP  CUMULATIVE    DISCREPANCY
   1   0.0000E+00     6.7500E+06  -6.7805E-01 -8.5872E+00       0.000
   2   0.0000E+00     3.7500E+06  -1.6013E-01 -6.7282E+00       0.000
   3   2.7326E+05     1.7500E+06  -1.7685E-01 -6.8945E+00       0.000
   4  -2.7326E+05     1.5000E+06  -1.7685E-01 -6.8945E+00       0.000
 --------------------------------------------------------------------------------



            CUMULATIVE HYDROLOGIC BUDGET SUMMARIES FOR SIMULATED LAKES
     (ALL FLUID FLUXES ARE SUMS OF VOLUMES ADDED TO THE LAKE SINCE INITIAL TIME)
     ---------------------------------------------------------------------------
 LAKE       PRECIP       EVAP       RUNOFF
   1     0.0000E+00  6.5261E+07  0.0000E+00
   2     0.0000E+00  3.6256E+07  0.0000E+00
   3     0.0000E+00  1.6919E+07  0.0000E+00
   4     0.0000E+00  1.4502E+07  0.0000E+00

            GROUND WATER            SURFACE WATER
 LAKE    INFLOW     OUTFLOW      INFLOW     OUTFLOW
   1  7.9969E+06  4.4044E+05  0.0000E+00  0.0000E+00
   2  1.1621E+07  3.1679E+05  0.0000E+00  0.0000E+00
   3  2.2677E+06  1.6068E+05  0.0000E+00  0.0000E+00
   4  8.7515E+06  3.2559E+04  0.0000E+00  0.0000E+00

         WATER    CONNECTED LAKE   CHANGE       PERCENT
 LAKE     USE         INFLUX       IN VOL.    DISCREPANCY
   1   0.0000E+00   2.0903E+06  -5.5614E+07      0.000
   2   0.0000E+00  -2.7924E+05  -2.5231E+07      0.000
   3   0.0000E+00   2.7471E+06  -1.2065E+07      0.000
   4   0.0000E+00  -4.5582E+06  -1.0342E+07      0.000
 --------------------------------------------------------------------------------


   1 CONNECTED LAKE SET

   2 LAKES:    3  4
 
 SOLVING FOR HEAD 
    16 ITERATIONS FOR TIME STEP  38 IN STRESS PERIOD    1

 HEAD/DRAWDOWN PRINTOUT FLAG = 0     TOTAL BUDGET PRINTOUT FLAG = 0
 CELL-BY-CELL FLOW TERM FLAG = 1

 OUTPUT FLAGS FOR ALL LAYERS ARE THE SAME:
   HEAD    DRAWDOWN  HEAD  DRAWDOWN
 PRINTOUT  PRINTOUT  SAVE    SAVE
 ----------------------------------
     0         0       0       0

 --------------------------------------------------------------------------------
 TIME STEP  38     NUMBER OF CONNECTED LAKES IS  2     TOTAL AREA =  0.325000000D+07

 READJUST STAGE OF LAKE   4 TO LAKE   4 SILL ELEVATION BY -0.12 TO  108.00


           SURFACE       SILL   WATER BUDGET  STAGE  CORRECTED   LAKE VOLUME
  LAKE       AREA      ELEVATION   STAGE   CORRECTION  STAGE     CORRECTION
 --------------------------------------------------------------------------------

   3     0.17500E+07 -99999.00    107.76      0.10    107.86    0.18013E+06
   4     0.15000E+07    108.00    108.12     -0.12    108.00   -0.18013E+06

     SECTIONS OF THE LAKE BOTTOM HAVE BECOME DRY.  THE DRYSECTIONS
     LIE ABOVE THE FOLLOWING 16 AQUIFER CELLS (LAYER,ROW,COLUMN):
     (  2,  9,  8)  (  2,  7,  9)  (  2,  8,  9)  (  2, 10,  9)  (  2, 11,  9)
     (  2,  7, 10)  (  2, 11, 10)  (  2,  7, 11)  (  2, 11, 11)  (  2,  7, 12)
     (  2, 11, 12)  (  2,  7, 13)  (  2,  8, 13)  (  2, 10, 13)  (  2, 11, 13)
     (  2,  9, 14)  (

 PERIOD     1     TIME STEP    38     TIME STEP LENGTH  1.0586E+01
 PERIOD TIME  2.4525E+02     TOTAL SIMULATION TIME  2.4525E+02


                 HYDROLOGIC BUDGET SUMMARIES FOR SIMULATED LAKES
     (ALL FLUID FLUXES ARE VOLUMES ADDED TO THE LAKE DURING PRESENT TIME STEP)
     -------------------------------------------------------------------------
 LAKE    STAGE         VOLUME     VOL.CHANGE      PRECIP     EVAPORATION        RUNOFF
   1   105.9821     2.4701E+07   -1.1844E+06    0.0000E+00    1.1994E+06    0.0000E+00
   2   108.1124     1.4171E+07   -5.9756E+05    0.0000E+00    1.6356E+06    0.0000E+00
   3   107.8588     1.1503E+07   -4.3176E+05    0.0000E+00    7.6327E+05    0.0000E+00
   4   108.0000     1.1500E+07   -1.5829E+05    0.0000E+00    6.5423E+05    0.0000E+00

            GROUND WATER            SURFACE WATER        WATER
 LAKE    INFLOW     OUTFLOW      INFLOW     OUTFLOW       USE
   1  5.5134E+04  4.0120E+04  0.0000E+00  0.0000E+00  0.0000E+00
   2  1.0787E+06  4.0707E+04  0.0000E+00  0.0000E+00  0.0000E+00
   3  1.7120E+05  1.9826E+04  0.0000E+00  0.0000E+00  0.0000E+00
   4  6.7689E+05  8.1771E+02  0.0000E+00  0.0000E+00  0.0000E+00

      CONNECTED LAKE   TIME-STEP         STAGE-CHANGE          PERCENT
 LAKE    INFLUX      SURFACE AREA   TIME STEP  CUMULATIVE    DISCREPANCY
   1   0.0000E+00     2.7500E+06  -4.3069E-01 -9.0179E+00       0.000
   2   0.0000E+00     3.7500E+06  -1.5935E-01 -6.8876E+00       0.000
   3   1.8013E+05     1.7500E+06  -2.4672E-01 -7.1412E+00       0.000
   4  -1.8013E+05     1.5000E+06  -1.0553E-01 -7.0000E+00       0.000
 --------------------------------------------------------------------------------



            CUMULATIVE HYDROLOGIC BUDGET SUMMARIES FOR SIMULATED LAKES
     (ALL FLUID FLUXES ARE SUMS OF VOLUMES ADDED TO THE LAKE SINCE INITIAL TIME)
     ---------------------------------------------------------------------------
 LAKE       PRECIP       EVAP       RUNOFF
   1     0.0000E+00  6.6460E+07  0.0000E+00
   2     0.0000E+00  3.7892E+07  0.0000E+00
   3     0.0000E+00  1.7683E+07  0.0000E+00
   4     0.0000E+00  1.5157E+07  0.0000E+00

            GROUND WATER            SURFACE WATER
 LAKE    INFLOW     OUTFLOW      INFLOW     OUTFLOW
   1  8.0520E+06  4.8056E+05  0.0000E+00  0.0000E+00
   2  1.2700E+07  3.5750E+05  0.0000E+00  0.0000E+00
   3  2.4389E+06  1.8051E+05  0.0000E+00  0.0000E+00
   4  9.4284E+06  3.3376E+04  0.0000E+00  0.0000E+00

         WATER    CONNECTED LAKE   CHANGE       PERCENT
 LAKE     USE         INFLUX       IN VOL.    DISCREPANCY
   1   0.0000E+00   2.0903E+06  -5.6799E+07      0.000
   2   0.0000E+00  -2.7924E+05  -2.5828E+07      0.000
   3   0.0000E+00   2.9273E+06  -1.2497E+07      0.000
   4   0.0000E+00  -4.7383E+06  -1.0500E+07      0.000
 --------------------------------------------------------------------------------


   1 CONNECTED LAKE SET

   2 LAKES:    3  4
 
 SOLVING FOR HEAD 

 CELL CONVERSIONS FOR ITER.=  2  LAYER=  1  STEP= 39  PERIOD=  1   (ROW,COL)
    DRY(  8,  8)   DRY( 10,  8)   

 CELL CONVERSIONS FOR ITER.=  3  LAYER=  1  STEP= 39  PERIOD=  1   (ROW,COL)
    DRY(  8, 14)   DRY( 10, 14)   
    16 ITERATIONS FOR TIME STEP  39 IN STRESS PERIOD    1

 HEAD/DRAWDOWN PRINTOUT FLAG = 0     TOTAL BUDGET PRINTOUT FLAG = 0
 CELL-BY-CELL FLOW TERM FLAG = 1

 OUTPUT FLAGS FOR ALL LAYERS ARE THE SAME:
   HEAD    DRAWDOWN  HEAD  DRAWDOWN
 PRINTOUT  PRINTOUT  SAVE    SAVE
 ----------------------------------
     0         0       0       0

 --------------------------------------------------------------------------------
 TIME STEP  39     NUMBER OF CONNECTED LAKES IS  2     TOTAL AREA =  0.325000000D+07

 READJUST STAGE OF LAKE   4 TO LAKE   4 SILL ELEVATION BY -0.02 TO  108.00


           SURFACE       SILL   WATER BUDGET  STAGE  CORRECTED   LAKE VOLUME
  LAKE       AREA      ELEVATION   STAGE   CORRECTION  STAGE     CORRECTION
 --------------------------------------------------------------------------------

   3     0.17500E+07 -99999.00    107.50      0.02    107.51     27768.    
   4     0.15000E+07    108.00    108.02     -0.02    108.00    -27768.    

     SECTIONS OF THE LAKE BOTTOM HAVE BECOME DRY.  THE DRYSECTIONS
     LIE ABOVE THE FOLLOWING 16 AQUIFER CELLS (LAYER,ROW,COLUMN):
     (  2,  9,  8)  (  2,  7,  9)  (  2,  8,  9)  (  2, 10,  9)  (  2, 11,  9)
     (  2,  7, 10)  (  2, 11, 10)  (  2,  7, 11)  (  2, 11, 11)  (  2,  7, 12)
     (  2, 11, 12)  (  2,  7, 13)  (  2,  8, 13)  (  2, 10, 13)  (  2, 11, 13)
     (  2,  9, 14)  (

 PERIOD     1     TIME STEP    39     TIME STEP LENGTH  1.0904E+01
 PERIOD TIME  2.5616E+02     TOTAL SIMULATION TIME  2.5616E+02


                 HYDROLOGIC BUDGET SUMMARIES FOR SIMULATED LAKES
     (ALL FLUID FLUXES ARE VOLUMES ADDED TO THE LAKE DURING PRESENT TIME STEP)
     -------------------------------------------------------------------------
 LAKE    STAGE         VOLUME     VOL.CHANGE      PRECIP     EVAPORATION        RUNOFF
   1   105.5067     2.3393E+07   -1.3073E+06    0.0000E+00    1.2354E+06    0.0000E+00
   2   107.9543     1.3578E+07   -5.9286E+05    0.0000E+00    1.6846E+06    0.0000E+00
   3   107.5133     1.0898E+07   -6.0465E+05    0.0000E+00    7.8616E+05    0.0000E+00
   4   108.0000     1.1500E+07    0.0000E+00    0.0000E+00    6.7385E+05    0.0000E+00

            GROUND WATER            SURFACE WATER        WATER
 LAKE    INFLOW     OUTFLOW      INFLOW     OUTFLOW       USE
   1  5.1871E+04  1.2374E+05  0.0000E+00  0.0000E+00  0.0000E+00
   2  1.1494E+06  5.7655E+04  0.0000E+00  0.0000E+00  0.0000E+00
   3  1.8087E+05  2.7126E+04  0.0000E+00  0.0000E+00  0.0000E+00
   4  7.0288E+05  1.2627E+03  0.0000E+00  0.0000E+00  0.0000E+00

      CONNECTED LAKE   TIME-STEP         STAGE-CHANGE          PERCENT
 LAKE    INFLUX      SURFACE AREA   TIME STEP  CUMULATIVE    DISCREPANCY
   1   0.0000E+00     2.7500E+06  -4.7537E-01 -9.4933E+00       0.000
   2   0.0000E+00     3.7500E+06  -1.5810E-01 -7.0457E+00       0.000
   3   2.7768E+04     1.7500E+06  -3.4552E-01 -7.4867E+00       0.000
   4  -2.7768E+04     1.5000E+06   0.0000E+00 -7.0000E+00       0.000
 --------------------------------------------------------------------------------



            CUMULATIVE HYDROLOGIC BUDGET SUMMARIES FOR SIMULATED LAKES
     (ALL FLUID FLUXES ARE SUMS OF VOLUMES ADDED TO THE LAKE SINCE INITIAL TIME)
     ---------------------------------------------------------------------------
 LAKE       PRECIP       EVAP       RUNOFF
   1     0.0000E+00  6.7696E+07  0.0000E+00
   2     0.0000E+00  3.9576E+07  0.0000E+00
   3     0.0000E+00  1.8469E+07  0.0000E+00
   4     0.0000E+00  1.5830E+07  0.0000E+00

            GROUND WATER            SURFACE WATER
 LAKE    INFLOW     OUTFLOW      INFLOW     OUTFLOW
   1  8.1039E+06  6.0431E+05  0.0000E+00  0.0000E+00
   2  1.3850E+07  4.1516E+05  0.0000E+00  0.0000E+00
   3  2.6198E+06  2.0763E+05  0.0000E+00  0.0000E+00
   4  1.0131E+07  3.4639E+04  0.0000E+00  0.0000E+00

         WATER    CONNECTED LAKE   CHANGE       PERCENT
 LAKE     USE         INFLUX       IN VOL.    DISCREPANCY
   1   0.0000E+00   2.0903E+06  -5.8106E+07      0.000
   2   0.0000E+00  -2.7924E+05  -2.6421E+07      0.000
   3   0.0000E+00   2.9550E+06  -1.3102E+07      0.000
   4   0.0000E+00  -4.7661E+06  -1.0500E+07      0.000
 --------------------------------------------------------------------------------


   1 CONNECTED LAKE SET

   2 LAKES:    3  4
 
 SOLVING FOR HEAD 
    17 ITERATIONS FOR TIME STEP  40 IN STRESS PERIOD    1

 HEAD/DRAWDOWN PRINTOUT FLAG = 1     TOTAL BUDGET PRINTOUT FLAG = 1
 CELL-BY-CELL FLOW TERM FLAG = 1

 OUTPUT FLAGS FOR EACH LAYER:
          HEAD    DRAWDOWN  HEAD  DRAWDOWN
 LAYER  PRINTOUT  PRINTOUT  SAVE    SAVE
 -----------------------------------------
    1       0         0       0       0
    2       0         0       0       0
    3       0         0       0       0
    4       0         0       0       0
    5       1         0       0       0

 --------------------------------------------------------------------------------
 TIME STEP  40     NUMBER OF CONNECTED LAKES IS  2     TOTAL AREA =  0.325000000D+07

 READJUST STAGE OF LAKE   4 TO LAKE   4 SILL ELEVATION BY -0.01 TO  108.00


           SURFACE       SILL   WATER BUDGET  STAGE  CORRECTED   LAKE VOLUME
  LAKE       AREA      ELEVATION   STAGE   CORRECTION  STAGE     CORRECTION
 --------------------------------------------------------------------------------

   3     0.17500E+07 -99999.00    107.15      0.01    107.16     21736.    
   4     0.15000E+07    108.00    108.01     -0.01    108.00    -21736.    

     SECTIONS OF THE LAKE BOTTOM HAVE BECOME DRY.  THE DRYSECTIONS
     LIE ABOVE THE FOLLOWING 16 AQUIFER CELLS (LAYER,ROW,COLUMN):
     (  2,  9,  8)  (  2,  7,  9)  (  2,  8,  9)  (  2, 10,  9)  (  2, 11,  9)
     (  2,  7, 10)  (  2, 11, 10)  (  2,  7, 11)  (  2, 11, 11)  (  2,  7, 12)
     (  2, 11, 12)  (  2,  7, 13)  (  2,  8, 13)  (  2, 10, 13)  (  2, 11, 13)
     (  2,  9, 14)  (

 PERIOD     1     TIME STEP    40     TIME STEP LENGTH  1.1231E+01
 PERIOD TIME  2.6739E+02     TOTAL SIMULATION TIME  2.6739E+02


                 HYDROLOGIC BUDGET SUMMARIES FOR SIMULATED LAKES
     (ALL FLUID FLUXES ARE VOLUMES ADDED TO THE LAKE DURING PRESENT TIME STEP)
     -------------------------------------------------------------------------
 LAKE    STAGE         VOLUME     VOL.CHANGE      PRECIP     EVAPORATION        RUNOFF
   1   105.0035     2.2010E+07   -1.3838E+06    0.0000E+00    1.2725E+06    0.0000E+00
   2   107.7996     1.2998E+07   -5.8024E+05    0.0000E+00    1.7352E+06    0.0000E+00
   3   107.1639     1.0287E+07   -6.1146E+05    0.0000E+00    8.0975E+05    0.0000E+00
   4   108.0000     1.1500E+07    0.0000E+00    0.0000E+00    6.9407E+05    0.0000E+00

            GROUND WATER            SURFACE WATER        WATER
 LAKE    INFLOW     OUTFLOW      INFLOW     OUTFLOW       USE
   1  4.8823E+04  1.6012E+05  0.0000E+00  0.0000E+00  0.0000E+00
   2  1.2237E+06  6.8811E+04  0.0000E+00  0.0000E+00  0.0000E+00
   3  2.0681E+05  3.0261E+04  0.0000E+00  0.0000E+00  0.0000E+00
   4  7.1849E+05  2.6806E+03  0.0000E+00  0.0000E+00  0.0000E+00

      CONNECTED LAKE   TIME-STEP         STAGE-CHANGE          PERCENT
 LAKE    INFLUX      SURFACE AREA   TIME STEP  CUMULATIVE    DISCREPANCY
   1   0.0000E+00     2.7500E+06  -5.0319E-01 -9.9965E+00       0.000
   2   0.0000E+00     3.7500E+06  -1.5473E-01 -7.2004E+00       0.000
   3   2.1736E+04     1.7500E+06  -3.4941E-01 -7.8361E+00       0.000
   4  -2.1736E+04     1.5000E+06   0.0000E+00 -7.0000E+00       0.000
 --------------------------------------------------------------------------------



            CUMULATIVE HYDROLOGIC BUDGET SUMMARIES FOR SIMULATED LAKES
     (ALL FLUID FLUXES ARE SUMS OF VOLUMES ADDED TO THE LAKE SINCE INITIAL TIME)
     ---------------------------------------------------------------------------
 LAKE       PRECIP       EVAP       RUNOFF
   1     0.0000E+00  6.8968E+07  0.0000E+00
   2     0.0000E+00  4.1311E+07  0.0000E+00
   3     0.0000E+00  1.9279E+07  0.0000E+00
   4     0.0000E+00  1.6525E+07  0.0000E+00

            GROUND WATER            SURFACE WATER
 LAKE    INFLOW     OUTFLOW      INFLOW     OUTFLOW
   1  8.1527E+06  7.6443E+05  0.0000E+00  0.0000E+00
   2  1.5073E+07  4.8397E+05  0.0000E+00  0.0000E+00
   3  2.8266E+06  2.3789E+05  0.0000E+00  0.0000E+00
   4  1.0850E+07  3.7320E+04  0.0000E+00  0.0000E+00

         WATER    CONNECTED LAKE   CHANGE       PERCENT
 LAKE     USE         INFLUX       IN VOL.    DISCREPANCY
   1   0.0000E+00   2.0903E+06  -5.9490E+07      0.000
   2   0.0000E+00  -2.7924E+05  -2.7001E+07      0.000
   3   0.0000E+00   2.9768E+06  -1.3713E+07      0.000
   4   0.0000E+00  -4.7878E+06  -1.0500E+07      0.000
 --------------------------------------------------------------------------------


   1 CONNECTED LAKE SET

   2 LAKES:    3  4
1
              HEAD IN LAYER   5 AT END OF TIME STEP  40 IN STRESS PERIOD    1
  ---------------------------------------------------------------------------

          1      2      3      4      5      6      7      8      9     10
 .........................................................................
   1   160.0  158.9  157.3  155.8  154.6  153.9  153.1  152.3  151.5  150.8
   2   160.0  154.0  149.8  146.9  145.3  144.3  143.4  142.5  141.7  141.0
   3   160.0  151.5  144.5  139.2  136.4  134.8  133.6  132.6  131.8  131.2
   4   160.0  150.2  140.8  132.8  128.7  126.6  125.1  124.1  123.4  122.9
   5   160.0  149.5  138.2  128.1  123.1  120.6  119.0  118.0  117.3  116.9
   6   160.0  149.1  136.6  124.5  117.6  115.0  113.6  112.8  112.0  111.6
   7   160.0  149.0  135.7  121.5  108.5  108.0  108.0  107.9  104.9  104.4
   8   160.0  148.9  135.4  120.6  108.2  107.8  107.7  106.3  103.9  104.9
   9   160.0  148.9  135.3  120.4  108.2  107.8  107.7  104.6  104.9  105.0
  10   160.0  148.9  135.4  120.6  108.2  107.8  107.7  106.3  103.9  104.9
  11   160.0  149.0  135.7  121.5  108.5  108.0  108.0  107.9  104.9  104.4
  12   160.0  149.1  136.6  124.5  117.6  115.0  113.6  112.8  112.0  111.6
  13   160.0  149.5  138.2  128.1  123.1  120.6  119.0  118.0  117.3  116.9
  14   160.0  150.2  140.8  132.8  128.7  126.6  125.1  124.1  123.4  122.9
  15   160.0  151.5  144.5  139.2  136.4  134.8  133.6  132.6  131.8  131.2
  16   160.0  154.0  149.8  146.9  145.3  144.3  143.4  142.5  141.7  141.0
  17   160.0  158.9  157.3  155.8  154.6  153.9  153.1  152.3  151.5  150.8
1
              HEAD IN LAYER   5 AT END OF TIME STEP  40 IN STRESS PERIOD    1
  ---------------------------------------------------------------------------

         11     12     13     14     15     16     17     18     19     20
 .........................................................................
   1   150.0  149.2  148.5  147.7  146.9  146.1  145.4  144.6  143.9  142.7
   2   140.2  139.5  138.8  138.1  137.4  136.8  136.2  135.6  135.2  134.7
   3   130.6  130.1  129.7  129.3  129.1  128.9  128.9  129.0  129.3  130.0
   4   122.5  122.2  122.1  122.0  122.1  122.4  122.9  123.8  125.0  127.4
   5   116.7  116.7  116.7  116.9  117.3  117.9  118.8  120.1  121.9  125.3
   6   111.5  111.6  111.9  112.7  113.4  114.2  115.2  116.7  119.0  123.5
   7   104.3  104.4  105.0  108.5  109.9  110.6  111.4  112.5  114.5  121.5
   8   105.0  104.9  103.9  106.3  107.2  107.3  108.2  108.2  108.5  120.0
   9   105.0  105.0  104.9  104.5  107.1  107.2  107.3  108.0  108.3  119.6
  10   105.0  104.9  103.9  106.3  107.2  107.3  108.3  108.2  108.7  120.1
  11   104.3  104.4  105.0  108.5  109.9  110.6  111.5  112.5  114.6  121.5
  12   111.5  111.6  111.9  112.7  113.4  114.2  115.2  116.7  119.0  123.5
  13   116.7  116.7  116.7  116.9  117.3  117.9  118.8  120.1  121.9  125.3
  14   122.5  122.2  122.1  122.0  122.1  122.4  122.9  123.8  125.0  127.4
  15   130.6  130.1  129.7  129.3  129.1  128.9  128.9  129.0  129.3  130.0
  16   140.2  139.5  138.8  138.1  137.4  136.8  136.2  135.6  135.2  134.7
  17   150.0  149.2  148.5  147.7  146.9  146.1  145.4  144.6  143.9  142.7
1
              HEAD IN LAYER   5 AT END OF TIME STEP  40 IN STRESS PERIOD    1
  ---------------------------------------------------------------------------

         21     22
 .................
   1   141.1  140.0
   2   135.6  140.0
   3   133.0  140.0
   4   132.0  140.0
   5   131.5  140.0
   6   131.1  140.0
   7   130.7  140.0
   8   130.5  140.0
   9   130.5  140.0
  10   130.5  140.0
  11   130.7  140.0
  12   131.1  140.0
  13   131.5  140.0
  14   132.0  140.0
  15   133.0  140.0
  16   135.6  140.0
  17   141.1  140.0
1
  VOLUMETRIC BUDGET FOR ENTIRE MODEL AT END OF TIME STEP 40 IN STRESS PERIOD   1
  ------------------------------------------------------------------------------

     CUMULATIVE VOLUMES      L**3       RATES FOR THIS TIME STEP      L**3/T
     ------------------                 ------------------------

           IN:                                      IN:
           ---                                      ---
             STORAGE =    12936985.0000               STORAGE =       84256.5703
       CONSTANT HEAD =   585009920.0000         CONSTANT HEAD =     1563059.7500
                  ET =           0.0000                    ET =           0.0000
            RECHARGE =           0.0000              RECHARGE =           0.0000
     SPECIFIED FLOWS =           0.0000       SPECIFIED FLOWS =           0.0000
       LAKE  SEEPAGE =     1523612.5000         LAKE  SEEPAGE =       23317.4863

            TOTAL IN =   599470528.0000              TOTAL IN =     1670633.7500

          OUT:                                     OUT:
          ----                                     ----
             STORAGE =   430254080.0000               STORAGE =      508515.9688
       CONSTANT HEAD =           0.0000         CONSTANT HEAD =           0.0000
                  ET =   132323304.0000                    ET =      966436.1875
            RECHARGE =           0.0000              RECHARGE =           0.0000
     SPECIFIED FLOWS =           0.0000       SPECIFIED FLOWS =           0.0000
       LAKE  SEEPAGE =    36902492.0000         LAKE  SEEPAGE =      195698.2188

           TOTAL OUT =   599479872.0000             TOTAL OUT =     1670650.3750

            IN - OUT =       -9344.0000              IN - OUT =         -16.6250

 PERCENT DISCREPANCY =           0.00     PERCENT DISCREPANCY =           0.00






          TIME SUMMARY AT END OF TIME STEP  40 IN STRESS PERIOD    1
                    SECONDS     MINUTES      HOURS       DAYS        YEARS
                    -----------------------------------------------------------
   TIME STEP LENGTH 9.70350E+05  16172.      269.54      11.231     3.07485E-02
 STRESS PERIOD TIME 2.31023E+07 3.85039E+05  6417.3      267.39     0.73207    
         TOTAL TIME 2.31023E+07 3.85039E+05  6417.3      267.39     0.73207    
1
 
 SOLVING FOR HEAD 
    18 ITERATIONS FOR TIME STEP  41 IN STRESS PERIOD    1

 HEAD/DRAWDOWN PRINTOUT FLAG = 0     TOTAL BUDGET PRINTOUT FLAG = 0
 CELL-BY-CELL FLOW TERM FLAG = 1

 OUTPUT FLAGS FOR ALL LAYERS ARE THE SAME:
   HEAD    DRAWDOWN  HEAD  DRAWDOWN
 PRINTOUT  PRINTOUT  SAVE    SAVE
 ----------------------------------
     0         0       0       0

 --------------------------------------------------------------------------------
 TIME STEP  41     NUMBER OF CONNECTED LAKES IS  2     TOTAL AREA =  0.325000000D+07

 READJUST STAGE OF LAKE   4 TO LAKE   4 SILL ELEVATION BY -0.01 TO  108.00


           SURFACE       SILL   WATER BUDGET  STAGE  CORRECTED   LAKE VOLUME
  LAKE       AREA      ELEVATION   STAGE   CORRECTION  STAGE     CORRECTION
 --------------------------------------------------------------------------------

   3     0.17500E+07 -99999.00    106.64      0.01    106.65     11619.    
   4     0.15000E+07    108.00    108.01     -0.01    108.00    -20333.    

     SECTIONS OF THE LAKE BOTTOM HAVE BECOME DRY.  THE DRYSECTIONS
     LIE ABOVE THE FOLLOWING 19 AQUIFER CELLS (LAYER,ROW,COLUMN):
     (  2,  9,  8)  (  2,  7,  9)  (  2,  8,  9)  (  2, 10,  9)  (  2, 11,  9)
     (  2,  7, 10)  (  2, 11, 10)  (  2,  7, 11)  (  2, 11, 11)  (  2,  7, 12)
     (  2, 11, 12)  (  2,  7, 13)  (  2,  8, 13)  (  2, 10, 13)  (  2, 11, 13)
     (  2,  9, 14)  (  2, 10, 15)  (  2, 10, 16)  (  2,  9, 17)  (

 PERIOD     1     TIME STEP    41     TIME STEP LENGTH  1.1568E+01
 PERIOD TIME  2.7896E+02     TOTAL SIMULATION TIME  2.7896E+02


                 HYDROLOGIC BUDGET SUMMARIES FOR SIMULATED LAKES
     (ALL FLUID FLUXES ARE VOLUMES ADDED TO THE LAKE DURING PRESENT TIME STEP)
     -------------------------------------------------------------------------
 LAKE    STAGE         VOLUME     VOL.CHANGE      PRECIP     EVAPORATION        RUNOFF
   1   104.4824     2.0577E+07   -1.4330E+06    0.0000E+00    1.3106E+06    0.0000E+00
   2   107.6492     1.2434E+07   -5.6410E+05    0.0000E+00    1.7872E+06    0.0000E+00
   3   106.6530     9.6530E+06   -6.3366E+05    0.0000E+00    8.3404E+05    0.0000E+00
   4   108.0000     1.1500E+07    0.0000E+00    0.0000E+00    7.1489E+05    0.0000E+00

            GROUND WATER            SURFACE WATER        WATER
 LAKE    INFLOW     OUTFLOW      INFLOW     OUTFLOW       USE
   1  4.6104E+04  1.6849E+05  0.0000E+00  0.0000E+00  0.0000E+00
   2  1.3015E+06  7.8408E+04  0.0000E+00  0.0000E+00  0.0000E+00
   3  2.1511E+05  2.6345E+04  0.0000E+00  0.0000E+00  0.0000E+00
   4  7.3891E+05  3.6843E+03  0.0000E+00  0.0000E+00  0.0000E+00

      CONNECTED LAKE   TIME-STEP         STAGE-CHANGE          PERCENT
 LAKE    INFLUX      SURFACE AREA   TIME STEP  CUMULATIVE    DISCREPANCY
   1   0.0000E+00     2.7500E+06  -5.2110E-01 -1.0518E+01       0.000
   2   0.0000E+00     3.7500E+06  -1.5043E-01 -7.3508E+00       0.000
   3   1.1619E+04     1.7500E+06  -5.1082E-01 -8.3470E+00       0.000
   4  -2.0333E+04     1.5000E+06   0.0000E+00 -7.0000E+00       0.000
 --------------------------------------------------------------------------------



            CUMULATIVE HYDROLOGIC BUDGET SUMMARIES FOR SIMULATED LAKES
     (ALL FLUID FLUXES ARE SUMS OF VOLUMES ADDED TO THE LAKE SINCE INITIAL TIME)
     ---------------------------------------------------------------------------
 LAKE       PRECIP       EVAP       RUNOFF
   1     0.0000E+00  7.0279E+07  0.0000E+00
   2     0.0000E+00  4.3099E+07  0.0000E+00
   3     0.0000E+00  2.0113E+07  0.0000E+00
   4     0.0000E+00  1.7239E+07  0.0000E+00

            GROUND WATER            SURFACE WATER
 LAKE    INFLOW     OUTFLOW      INFLOW     OUTFLOW
   1  8.1988E+06  9.3293E+05  0.0000E+00  0.0000E+00
   2  1.6375E+07  5.6238E+05  0.0000E+00  0.0000E+00
   3  3.0417E+06  2.6424E+05  0.0000E+00  0.0000E+00
   4  1.1589E+07  4.1004E+04  0.0000E+00  0.0000E+00

         WATER    CONNECTED LAKE   CHANGE       PERCENT
 LAKE     USE         INFLUX       IN VOL.    DISCREPANCY
   1   0.0000E+00   2.0903E+06  -6.0923E+07      0.000
   2   0.0000E+00  -2.7924E+05  -2.7565E+07      0.000
   3   0.0000E+00   2.9884E+06  -1.4347E+07      0.000
   4   0.0000E+00  -4.8082E+06  -1.0500E+07      0.000
 --------------------------------------------------------------------------------


   1 CONNECTED LAKE SET

   2 LAKES:    3  4
 
 SOLVING FOR HEAD 
    17 ITERATIONS FOR TIME STEP  42 IN STRESS PERIOD    1

 HEAD/DRAWDOWN PRINTOUT FLAG = 0     TOTAL BUDGET PRINTOUT FLAG = 0
 CELL-BY-CELL FLOW TERM FLAG = 1

 OUTPUT FLAGS FOR ALL LAYERS ARE THE SAME:
   HEAD    DRAWDOWN  HEAD  DRAWDOWN
 PRINTOUT  PRINTOUT  SAVE    SAVE
 ----------------------------------
     0         0       0       0

 --------------------------------------------------------------------------------
 TIME STEP  42     NUMBER OF CONNECTED LAKES IS  2     TOTAL AREA =  0.250000000D+07

 READJUST STAGE OF LAKE   4 TO LAKE   4 SILL ELEVATION BY  0.00 TO  108.00


           SURFACE       SILL   WATER BUDGET  STAGE  CORRECTED   LAKE VOLUME
  LAKE       AREA      ELEVATION   STAGE   CORRECTION  STAGE     CORRECTION
 --------------------------------------------------------------------------------

   3     0.10000E+07 -99999.00    106.24      0.00    106.24     2226.3    
   4     0.15000E+07    108.00    108.00      0.00    108.00    -2226.3    

     SECTIONS OF THE LAKE BOTTOM HAVE BECOME DRY.  THE DRYSECTIONS
     LIE ABOVE THE FOLLOWING 19 AQUIFER CELLS (LAYER,ROW,COLUMN):
     (  2,  9,  8)  (  2,  7,  9)  (  2,  8,  9)  (  2, 10,  9)  (  2, 11,  9)
     (  2,  7, 10)  (  2, 11, 10)  (  2,  7, 11)  (  2, 11, 11)  (  2,  7, 12)
     (  2, 11, 12)  (  2,  7, 13)  (  2,  8, 13)  (  2, 10, 13)  (  2, 11, 13)
     (  2,  9, 14)  (  2, 10, 15)  (  2, 10, 16)  (  2,  9, 17)  (

 PERIOD     1     TIME STEP    42     TIME STEP LENGTH  1.1915E+01
 PERIOD TIME  2.9087E+02     TOTAL SIMULATION TIME  2.9087E+02


                 HYDROLOGIC BUDGET SUMMARIES FOR SIMULATED LAKES
     (ALL FLUID FLUXES ARE VOLUMES ADDED TO THE LAKE DURING PRESENT TIME STEP)
     -------------------------------------------------------------------------
 LAKE    STAGE         VOLUME     VOL.CHANGE      PRECIP     EVAPORATION        RUNOFF
   1   103.9494     1.9111E+07   -1.4659E+06    0.0000E+00    1.3500E+06    0.0000E+00
   2   107.5039     1.1889E+07   -5.4486E+05    0.0000E+00    1.8408E+06    0.0000E+00
   3   106.2387     9.2387E+06   -4.1433E+05    0.0000E+00    4.9089E+05    0.0000E+00
   4   108.0000     1.1500E+07    0.0000E+00    0.0000E+00    7.3634E+05    0.0000E+00

            GROUND WATER            SURFACE WATER        WATER
 LAKE    INFLOW     OUTFLOW      INFLOW     OUTFLOW       USE
   1  4.3782E+04  1.5975E+05  0.0000E+00  0.0000E+00  0.0000E+00
   2  1.3828E+06  8.6841E+04  0.0000E+00  0.0000E+00  0.0000E+00
   3  1.1500E+05  4.0663E+04  0.0000E+00  0.0000E+00  0.0000E+00
   4  7.5653E+05  1.7964E+04  0.0000E+00  0.0000E+00  0.0000E+00

      CONNECTED LAKE   TIME-STEP         STAGE-CHANGE          PERCENT
 LAKE    INFLUX      SURFACE AREA   TIME STEP  CUMULATIVE    DISCREPANCY
   1   0.0000E+00     2.7500E+06  -5.3306E-01 -1.1051E+01       0.000
   2   0.0000E+00     3.7500E+06  -1.4530E-01 -7.4961E+00       0.000
   3   2.2263E+03     1.0000E+06  -4.1433E-01 -8.7613E+00       0.000
   4  -2.2263E+03     1.5000E+06   0.0000E+00 -7.0000E+00       0.000
 --------------------------------------------------------------------------------



            CUMULATIVE HYDROLOGIC BUDGET SUMMARIES FOR SIMULATED LAKES
     (ALL FLUID FLUXES ARE SUMS OF VOLUMES ADDED TO THE LAKE SINCE INITIAL TIME)
     ---------------------------------------------------------------------------
 LAKE       PRECIP       EVAP       RUNOFF
   1     0.0000E+00  7.1629E+07  0.0000E+00
   2     0.0000E+00  4.4940E+07  0.0000E+00
   3     0.0000E+00  2.0604E+07  0.0000E+00
   4     0.0000E+00  1.7976E+07  0.0000E+00

            GROUND WATER            SURFACE WATER
 LAKE    INFLOW     OUTFLOW      INFLOW     OUTFLOW
   1  8.2426E+06  1.0927E+06  0.0000E+00  0.0000E+00
   2  1.7758E+07  6.4922E+05  0.0000E+00  0.0000E+00
   3  3.1567E+06  3.0490E+05  0.0000E+00  0.0000E+00
   4  1.2345E+07  5.8968E+04  0.0000E+00  0.0000E+00

         WATER    CONNECTED LAKE   CHANGE       PERCENT
 LAKE     USE         INFLUX       IN VOL.    DISCREPANCY
   1   0.0000E+00   2.0903E+06  -6.2389E+07      0.000
   2   0.0000E+00  -2.7924E+05  -2.8110E+07      0.000
   3   0.0000E+00   2.9906E+06  -1.4761E+07      0.000
   4   0.0000E+00  -4.8104E+06  -1.0500E+07      0.000
 --------------------------------------------------------------------------------


   1 CONNECTED LAKE SET

   2 LAKES:    3  4
 
 SOLVING FOR HEAD 
    17 ITERATIONS FOR TIME STEP  43 IN STRESS PERIOD    1

 HEAD/DRAWDOWN PRINTOUT FLAG = 0     TOTAL BUDGET PRINTOUT FLAG = 0
 CELL-BY-CELL FLOW TERM FLAG = 1

 OUTPUT FLAGS FOR ALL LAYERS ARE THE SAME:
   HEAD    DRAWDOWN  HEAD  DRAWDOWN
 PRINTOUT  PRINTOUT  SAVE    SAVE
 ----------------------------------
     0         0       0       0

          WARNING -- SUM OF INTERLAKE FLUXES         0. EXCEEDS10**6 OF THE TOTAL VOLUME


     SECTIONS OF THE LAKE BOTTOM HAVE BECOME DRY.  THE DRYSECTIONS
     LIE ABOVE THE FOLLOWING 19 AQUIFER CELLS (LAYER,ROW,COLUMN):
     (  2,  9,  8)  (  2,  7,  9)  (  2,  8,  9)  (  2, 10,  9)  (  2, 11,  9)
     (  2,  7, 10)  (  2, 11, 10)  (  2,  7, 11)  (  2, 11, 11)  (  2,  7, 12)
     (  2, 11, 12)  (  2,  7, 13)  (  2,  8, 13)  (  2, 10, 13)  (  2, 11, 13)
     (  2,  9, 14)  (  2, 10, 15)  (  2, 10, 16)  (  2,  9, 17)  (

 PERIOD     1     TIME STEP    43     TIME STEP LENGTH  1.2272E+01
 PERIOD TIME  3.0314E+02     TOTAL SIMULATION TIME  3.0314E+02


                 HYDROLOGIC BUDGET SUMMARIES FOR SIMULATED LAKES
     (ALL FLUID FLUXES ARE VOLUMES ADDED TO THE LAKE DURING PRESENT TIME STEP)
     -------------------------------------------------------------------------
 LAKE    STAGE         VOLUME     VOL.CHANGE      PRECIP     EVAPORATION        RUNOFF
   1   103.4083     1.7623E+07   -1.4879E+06    0.0000E+00    1.3905E+06    0.0000E+00
   2   107.3644     1.1366E+07   -5.2307E+05    0.0000E+00    1.8961E+06    0.0000E+00
   3   105.8054     8.8054E+06   -4.3329E+05    0.0000E+00    5.0562E+05    0.0000E+00
   4   107.9936     1.1490E+07   -9.5650E+03    0.0000E+00    7.5843E+05    0.0000E+00

            GROUND WATER            SURFACE WATER        WATER
 LAKE    INFLOW     OUTFLOW      INFLOW     OUTFLOW       USE
   1  4.2100E+04  1.3952E+05  0.0000E+00  0.0000E+00  0.0000E+00
   2  1.4674E+06  9.4437E+04  0.0000E+00  0.0000E+00  0.0000E+00
   3  1.2427E+05  5.1942E+04  0.0000E+00  0.0000E+00  0.0000E+00
   4  7.7532E+05  2.6459E+04  0.0000E+00  0.0000E+00  0.0000E+00

      CONNECTED LAKE   TIME-STEP         STAGE-CHANGE          PERCENT
 LAKE    INFLUX      SURFACE AREA   TIME STEP  CUMULATIVE    DISCREPANCY
   1   0.0000E+00     2.7500E+06  -5.4105E-01 -1.1592E+01       0.000
   2   0.0000E+00     3.7500E+06  -1.3949E-01 -7.6356E+00       0.000
   3   0.0000E+00     1.0000E+06  -4.3329E-01 -9.1946E+00       0.000
   4   0.0000E+00     1.5000E+06  -6.3771E-03 -7.0064E+00       0.000
 --------------------------------------------------------------------------------



            CUMULATIVE HYDROLOGIC BUDGET SUMMARIES FOR SIMULATED LAKES
     (ALL FLUID FLUXES ARE SUMS OF VOLUMES ADDED TO THE LAKE SINCE INITIAL TIME)
     ---------------------------------------------------------------------------
 LAKE       PRECIP       EVAP       RUNOFF
   1     0.0000E+00  7.3019E+07  0.0000E+00
   2     0.0000E+00  4.6836E+07  0.0000E+00
   3     0.0000E+00  2.1109E+07  0.0000E+00
   4     0.0000E+00  1.8734E+07  0.0000E+00

            GROUND WATER            SURFACE WATER
 LAKE    INFLOW     OUTFLOW      INFLOW     OUTFLOW
   1  8.2847E+06  1.2322E+06  0.0000E+00  0.0000E+00
   2  1.9225E+07  7.4365E+05  0.0000E+00  0.0000E+00
   3  3.2810E+06  3.5684E+05  0.0000E+00  0.0000E+00
   4  1.3121E+07  8.5426E+04  0.0000E+00  0.0000E+00

         WATER    CONNECTED LAKE   CHANGE       PERCENT
 LAKE     USE         INFLUX       IN VOL.    DISCREPANCY
   1   0.0000E+00   2.0903E+06  -6.3876E+07      0.000
   2   0.0000E+00  -2.7924E+05  -2.8633E+07      0.000
   3   0.0000E+00   2.9906E+06  -1.5194E+07      0.000
   4   0.0000E+00  -4.8104E+06  -1.0510E+07      0.000
 --------------------------------------------------------------------------------

 
 SOLVING FOR HEAD 

 CELL CONVERSIONS FOR ITER.=  2  LAYER=  1  STEP= 44  PERIOD=  1   (ROW,COL)
    DRY(  7,  8)   DRY( 11,  8)   
    18 ITERATIONS FOR TIME STEP  44 IN STRESS PERIOD    1

 HEAD/DRAWDOWN PRINTOUT FLAG = 0     TOTAL BUDGET PRINTOUT FLAG = 0
 CELL-BY-CELL FLOW TERM FLAG = 1

 OUTPUT FLAGS FOR ALL LAYERS ARE THE SAME:
   HEAD    DRAWDOWN  HEAD  DRAWDOWN
 PRINTOUT  PRINTOUT  SAVE    SAVE
 ----------------------------------
     0         0       0       0

          WARNING -- SUM OF INTERLAKE FLUXES         0. EXCEEDS10**6 OF THE TOTAL VOLUME


     SECTIONS OF THE LAKE BOTTOM HAVE BECOME DRY.  THE DRYSECTIONS
     LIE ABOVE THE FOLLOWING 19 AQUIFER CELLS (LAYER,ROW,COLUMN):
     (  2,  9,  8)  (  2,  7,  9)  (  2,  8,  9)  (  2, 10,  9)  (  2, 11,  9)
     (  2,  7, 10)  (  2, 11, 10)  (  2,  7, 11)  (  2, 11, 11)  (  2,  7, 12)
     (  2, 11, 12)  (  2,  7, 13)  (  2,  8, 13)  (  2, 10, 13)  (  2, 11, 13)
     (  2,  9, 14)  (  2, 10, 15)  (  2, 10, 16)  (  2,  9, 17)  (

 PERIOD     1     TIME STEP    44     TIME STEP LENGTH  1.2640E+01
 PERIOD TIME  3.1578E+02     TOTAL SIMULATION TIME  3.1578E+02


                 HYDROLOGIC BUDGET SUMMARIES FOR SIMULATED LAKES
     (ALL FLUID FLUXES ARE VOLUMES ADDED TO THE LAKE DURING PRESENT TIME STEP)
     -------------------------------------------------------------------------
 LAKE    STAGE         VOLUME     VOL.CHANGE      PRECIP     EVAPORATION        RUNOFF
   1   102.8620     1.6120E+07   -1.5024E+06    0.0000E+00    1.4322E+06    0.0000E+00
   2   107.2308     1.0865E+07   -5.0094E+05    0.0000E+00    1.9530E+06    0.0000E+00
   3   105.3644     8.3643E+06   -4.4105E+05    0.0000E+00    5.2079E+05    0.0000E+00
   4   107.9815     1.1472E+07   -1.8115E+04    0.0000E+00    7.8118E+05    0.0000E+00

            GROUND WATER            SURFACE WATER        WATER
 LAKE    INFLOW     OUTFLOW      INFLOW     OUTFLOW       USE
   1  4.1229E+04  1.1146E+05  0.0000E+00  0.0000E+00  0.0000E+00
   2  1.5538E+06  1.0180E+05  0.0000E+00  0.0000E+00  0.0000E+00
   3  1.3531E+05  5.5576E+04  0.0000E+00  0.0000E+00  0.0000E+00
   4  7.9604E+05  3.2977E+04  0.0000E+00  0.0000E+00  0.0000E+00

      CONNECTED LAKE   TIME-STEP         STAGE-CHANGE          PERCENT
 LAKE    INFLUX      SURFACE AREA   TIME STEP  CUMULATIVE    DISCREPANCY
   1   0.0000E+00     2.7500E+06  -5.4633E-01 -1.2138E+01       0.000
   2   0.0000E+00     3.7500E+06  -1.3359E-01 -7.7692E+00       0.000
   3   0.0000E+00     1.0000E+06  -4.4105E-01 -9.6356E+00       0.000
   4   0.0000E+00     1.5000E+06  -1.2077E-02 -7.0185E+00       0.000
 --------------------------------------------------------------------------------



            CUMULATIVE HYDROLOGIC BUDGET SUMMARIES FOR SIMULATED LAKES
     (ALL FLUID FLUXES ARE SUMS OF VOLUMES ADDED TO THE LAKE SINCE INITIAL TIME)
     ---------------------------------------------------------------------------
 LAKE       PRECIP       EVAP       RUNOFF
   1     0.0000E+00  7.4451E+07  0.0000E+00
   2     0.0000E+00  4.8789E+07  0.0000E+00
   3     0.0000E+00  2.1630E+07  0.0000E+00
   4     0.0000E+00  1.9515E+07  0.0000E+00

            GROUND WATER            SURFACE WATER
 LAKE    INFLOW     OUTFLOW      INFLOW     OUTFLOW
   1  8.3260E+06  1.3437E+06  0.0000E+00  0.0000E+00
   2  2.0779E+07  8.4546E+05  0.0000E+00  0.0000E+00
   3  3.4163E+06  4.1242E+05  0.0000E+00  0.0000E+00
   4  1.3917E+07  1.1840E+05  0.0000E+00  0.0000E+00

         WATER    CONNECTED LAKE   CHANGE       PERCENT
 LAKE     USE         INFLUX       IN VOL.    DISCREPANCY
   1   0.0000E+00   2.0903E+06  -6.5379E+07      0.000
   2   0.0000E+00  -2.7924E+05  -2.9134E+07      0.000
   3   0.0000E+00   2.9906E+06  -1.5635E+07      0.000
   4   0.0000E+00  -4.8104E+06  -1.0528E+07      0.000
 --------------------------------------------------------------------------------

 
 SOLVING FOR HEAD 

 CELL CONVERSIONS FOR ITER.=  2  LAYER=  1  STEP= 45  PERIOD=  1   (ROW,COL)
    DRY( 11, 14)   

 CELL CONVERSIONS FOR ITER.=  4  LAYER=  1  STEP= 45  PERIOD=  1   (ROW,COL)
    DRY(  7, 14)   
    18 ITERATIONS FOR TIME STEP  45 IN STRESS PERIOD    1

 HEAD/DRAWDOWN PRINTOUT FLAG = 0     TOTAL BUDGET PRINTOUT FLAG = 0
 CELL-BY-CELL FLOW TERM FLAG = 1

 OUTPUT FLAGS FOR ALL LAYERS ARE THE SAME:
   HEAD    DRAWDOWN  HEAD  DRAWDOWN
 PRINTOUT  PRINTOUT  SAVE    SAVE
 ----------------------------------
     0         0       0       0

          WARNING -- SUM OF INTERLAKE FLUXES         0. EXCEEDS10**6 OF THE TOTAL VOLUME


     SECTIONS OF THE LAKE BOTTOM HAVE BECOME DRY.  THE DRYSECTIONS
     LIE ABOVE THE FOLLOWING 19 AQUIFER CELLS (LAYER,ROW,COLUMN):
     (  2,  9,  8)  (  2,  7,  9)  (  2,  8,  9)  (  2, 10,  9)  (  2, 11,  9)
     (  2,  7, 10)  (  2, 11, 10)  (  2,  7, 11)  (  2, 11, 11)  (  2,  7, 12)
     (  2, 11, 12)  (  2,  7, 13)  (  2,  8, 13)  (  2, 10, 13)  (  2, 11, 13)
     (  2,  9, 14)  (  2, 10, 15)  (  2, 10, 16)  (  2,  9, 17)  (

 PERIOD     1     TIME STEP    45     TIME STEP LENGTH  1.3020E+01
 PERIOD TIME  3.2880E+02     TOTAL SIMULATION TIME  3.2880E+02


                 HYDROLOGIC BUDGET SUMMARIES FOR SIMULATED LAKES
     (ALL FLUID FLUXES ARE VOLUMES ADDED TO THE LAKE DURING PRESENT TIME STEP)
     -------------------------------------------------------------------------
 LAKE    STAGE         VOLUME     VOL.CHANGE      PRECIP     EVAPORATION        RUNOFF
   1   102.3122     1.4608E+07   -1.5120E+06    0.0000E+00    1.4751E+06    0.0000E+00
   2   107.1071     1.0401E+07   -4.6403E+05    0.0000E+00    2.0115E+06    0.0000E+00
   3   104.9208     7.9207E+06   -4.4362E+05    0.0000E+00    5.3641E+05    0.0000E+00
   4   107.9655     1.1448E+07   -2.4054E+04    0.0000E+00    8.0462E+05    0.0000E+00

            GROUND WATER            SURFACE WATER        WATER
 LAKE    INFLOW     OUTFLOW      INFLOW     OUTFLOW       USE
   1  4.0768E+04  7.7629E+04  0.0000E+00  0.0000E+00  0.0000E+00
   2  1.6397E+06  9.2173E+04  0.0000E+00  0.0000E+00  0.0000E+00
   3  1.4719E+05  5.4400E+04  0.0000E+00  0.0000E+00  0.0000E+00
   4  8.1874E+05  3.8178E+04  0.0000E+00  0.0000E+00  0.0000E+00

      CONNECTED LAKE   TIME-STEP         STAGE-CHANGE          PERCENT
 LAKE    INFLUX      SURFACE AREA   TIME STEP  CUMULATIVE    DISCREPANCY
   1   0.0000E+00     2.7500E+06  -5.4982E-01 -1.2688E+01       0.000
   2   0.0000E+00     3.7500E+06  -1.2374E-01 -7.8929E+00       0.000
   3   0.0000E+00     1.0000E+06  -4.4362E-01 -1.0079E+01       0.000
   4   0.0000E+00     1.5000E+06  -1.6036E-02 -7.0345E+00       0.000
 --------------------------------------------------------------------------------



            CUMULATIVE HYDROLOGIC BUDGET SUMMARIES FOR SIMULATED LAKES
     (ALL FLUID FLUXES ARE SUMS OF VOLUMES ADDED TO THE LAKE SINCE INITIAL TIME)
     ---------------------------------------------------------------------------
 LAKE       PRECIP       EVAP       RUNOFF
   1     0.0000E+00  7.5926E+07  0.0000E+00
   2     0.0000E+00  5.0800E+07  0.0000E+00
   3     0.0000E+00  2.2166E+07  0.0000E+00
   4     0.0000E+00  2.0320E+07  0.0000E+00

            GROUND WATER            SURFACE WATER
 LAKE    INFLOW     OUTFLOW      INFLOW     OUTFLOW
   1  8.3667E+06  1.4213E+06  0.0000E+00  0.0000E+00
   2  2.2419E+07  9.3763E+05  0.0000E+00  0.0000E+00
   3  3.5635E+06  4.6682E+05  0.0000E+00  0.0000E+00
   4  1.4735E+07  1.5658E+05  0.0000E+00  0.0000E+00

         WATER    CONNECTED LAKE   CHANGE       PERCENT
 LAKE     USE         INFLUX       IN VOL.    DISCREPANCY
   1   0.0000E+00   2.0903E+06  -6.6891E+07      0.000
   2   0.0000E+00  -2.7924E+05  -2.9598E+07      0.000
   3   0.0000E+00   2.9906E+06  -1.6079E+07      0.000
   4   0.0000E+00  -4.8104E+06  -1.0552E+07      0.000
 --------------------------------------------------------------------------------

 
 SOLVING FOR HEAD 

 CELL CONVERSIONS FOR ITER.=  2  LAYER=  1  STEP= 46  PERIOD=  1   (ROW,COL)
    DRY( 10, 17)   

 CELL CONVERSIONS FOR ITER.=  3  LAYER=  1  STEP= 46  PERIOD=  1   (ROW,COL)
    DRY(  8, 17)   
    18 ITERATIONS FOR TIME STEP  46 IN STRESS PERIOD    1

 HEAD/DRAWDOWN PRINTOUT FLAG = 0     TOTAL BUDGET PRINTOUT FLAG = 0
 CELL-BY-CELL FLOW TERM FLAG = 1

 OUTPUT FLAGS FOR ALL LAYERS ARE THE SAME:
   HEAD    DRAWDOWN  HEAD  DRAWDOWN
 PRINTOUT  PRINTOUT  SAVE    SAVE
 ----------------------------------
     0         0       0       0

          WARNING -- SUM OF INTERLAKE FLUXES         0. EXCEEDS10**6 OF THE TOTAL VOLUME


     SECTIONS OF THE LAKE BOTTOM HAVE BECOME DRY.  THE DRYSECTIONS
     LIE ABOVE THE FOLLOWING 30 AQUIFER CELLS (LAYER,ROW,COLUMN):
     (  2,  7,  5)  (  2,  8,  5)  (  2,  9,  5)  (  2, 10,  5)  (  2, 11,  5)
     (  2,  7,  6)  (  2, 11,  6)  (  2,  7,  7)  (  2,  8,  7)  (  2, 10,  7)
     (  2, 11,  7)  (  2,  9,  8)  (  2,  7,  9)  (  2,  8,  9)  (  2, 10,  9)
     (  2, 11,  9)  (  2,  7, 10)  (  2, 11, 10)  (  2,  7, 11)  (  2, 11, 11)
     (  2,  7, 12)  (  2, 11, 12)  (  2,  7, 13)  (  2,  8, 13)  (  2, 10, 13)
     (  2, 11, 13)  (  2,  9, 14)  (  2, 10, 15)  (  2, 10, 16)  (  2,  9, 17)

 PERIOD     1     TIME STEP    46     TIME STEP LENGTH  1.3410E+01
 PERIOD TIME  3.4221E+02     TOTAL SIMULATION TIME  3.4221E+02


                 HYDROLOGIC BUDGET SUMMARIES FOR SIMULATED LAKES
     (ALL FLUID FLUXES ARE VOLUMES ADDED TO THE LAKE DURING PRESENT TIME STEP)
     -------------------------------------------------------------------------
 LAKE    STAGE         VOLUME     VOL.CHANGE      PRECIP     EVAPORATION        RUNOFF
   1   101.7603     1.3091E+07   -1.5176E+06    0.0000E+00    1.5194E+06    0.0000E+00
   2   106.9360     9.9359E+06   -4.6530E+05    0.0000E+00    2.0719E+06    0.0000E+00
   3   104.4779     7.4778E+06   -4.4286E+05    0.0000E+00    5.5250E+05    0.0000E+00
   4   107.9460     1.1419E+07   -2.9234E+04    0.0000E+00    8.2876E+05    0.0000E+00

            GROUND WATER            SURFACE WATER        WATER
 LAKE    INFLOW     OUTFLOW      INFLOW     OUTFLOW       USE
   1  4.2422E+04  4.0620E+04  0.0000E+00  0.0000E+00  0.0000E+00
   2  1.6704E+06  6.3810E+04  0.0000E+00  0.0000E+00  0.0000E+00
   3  1.5996E+05  5.0320E+04  0.0000E+00  0.0000E+00  0.0000E+00
   4  8.4254E+05  4.3016E+04  0.0000E+00  0.0000E+00  0.0000E+00

      CONNECTED LAKE   TIME-STEP         STAGE-CHANGE          PERCENT
 LAKE    INFLUX      SURFACE AREA   TIME STEP  CUMULATIVE    DISCREPANCY
   1   0.0000E+00     2.7500E+06  -5.5185E-01 -1.3240E+01       0.000
   2   0.0000E+00     3.7500E+06  -1.7109E-01 -8.0640E+00       0.000
   3   0.0000E+00     1.0000E+06  -4.4287E-01 -1.0522E+01       0.000
   4   0.0000E+00     1.5000E+06  -1.9489E-02 -7.0540E+00       0.000
 --------------------------------------------------------------------------------



            CUMULATIVE HYDROLOGIC BUDGET SUMMARIES FOR SIMULATED LAKES
     (ALL FLUID FLUXES ARE SUMS OF VOLUMES ADDED TO THE LAKE SINCE INITIAL TIME)
     ---------------------------------------------------------------------------
 LAKE       PRECIP       EVAP       RUNOFF
   1     0.0000E+00  7.7446E+07  0.0000E+00
   2     0.0000E+00  5.2872E+07  0.0000E+00
   3     0.0000E+00  2.2719E+07  0.0000E+00
   4     0.0000E+00  2.1149E+07  0.0000E+00

            GROUND WATER            SURFACE WATER
 LAKE    INFLOW     OUTFLOW      INFLOW     OUTFLOW
   1  8.4091E+06  1.4619E+06  0.0000E+00  0.0000E+00
   2  2.4089E+07  1.0014E+06  0.0000E+00  0.0000E+00
   3  3.7235E+06  5.1714E+05  0.0000E+00  0.0000E+00
   4  1.5578E+07  1.9960E+05  0.0000E+00  0.0000E+00

         WATER    CONNECTED LAKE   CHANGE       PERCENT
 LAKE     USE         INFLUX       IN VOL.    DISCREPANCY
   1   0.0000E+00   2.0903E+06  -6.8408E+07      0.000
   2   0.0000E+00  -2.7924E+05  -3.0064E+07      0.000
   3   0.0000E+00   2.9906E+06  -1.6522E+07      0.000
   4   0.0000E+00  -4.8104E+06  -1.0581E+07      0.000
 --------------------------------------------------------------------------------

 
 SOLVING FOR HEAD 
    20 ITERATIONS FOR TIME STEP  47 IN STRESS PERIOD    1

 HEAD/DRAWDOWN PRINTOUT FLAG = 0     TOTAL BUDGET PRINTOUT FLAG = 0
 CELL-BY-CELL FLOW TERM FLAG = 1

 OUTPUT FLAGS FOR ALL LAYERS ARE THE SAME:
   HEAD    DRAWDOWN  HEAD  DRAWDOWN
 PRINTOUT  PRINTOUT  SAVE    SAVE
 ----------------------------------
     0         0       0       0

          WARNING -- SUM OF INTERLAKE FLUXES         0. EXCEEDS10**6 OF THE TOTAL VOLUME


     SECTIONS OF THE LAKE BOTTOM HAVE BECOME DRY.  THE DRYSECTIONS
     LIE ABOVE THE FOLLOWING 30 AQUIFER CELLS (LAYER,ROW,COLUMN):
     (  2,  7,  5)  (  2,  8,  5)  (  2,  9,  5)  (  2, 10,  5)  (  2, 11,  5)
     (  2,  7,  6)  (  2, 11,  6)  (  2,  7,  7)  (  2,  8,  7)  (  2, 10,  7)
     (  2, 11,  7)  (  2,  9,  8)  (  2,  7,  9)  (  2,  8,  9)  (  2, 10,  9)
     (  2, 11,  9)  (  2,  7, 10)  (  2, 11, 10)  (  2,  7, 11)  (  2, 11, 11)
     (  2,  7, 12)  (  2, 11, 12)  (  2,  7, 13)  (  2,  8, 13)  (  2, 10, 13)
     (  2, 11, 13)  (  2,  9, 14)  (  2, 10, 15)  (  2, 10, 16)  (  2,  9, 17)

 PERIOD     1     TIME STEP    47     TIME STEP LENGTH  1.3813E+01
 PERIOD TIME  3.5603E+02     TOTAL SIMULATION TIME  3.5603E+02


                 HYDROLOGIC BUDGET SUMMARIES FOR SIMULATED LAKES
     (ALL FLUID FLUXES ARE VOLUMES ADDED TO THE LAKE DURING PRESENT TIME STEP)
     -------------------------------------------------------------------------
 LAKE    STAGE         VOLUME     VOL.CHANGE      PRECIP     EVAPORATION        RUNOFF
   1   101.2057     1.1566E+07   -1.5252E+06    0.0000E+00    1.5650E+06    0.0000E+00
   2   105.7807     8.7807E+06   -1.1552E+06    0.0000E+00    1.8331E+06    0.0000E+00
   3   104.0398     7.0397E+06   -4.3810E+05    0.0000E+00    5.6908E+05    0.0000E+00
   4   107.9249     1.1387E+07   -3.1685E+04    0.0000E+00    8.5362E+05    0.0000E+00

            GROUND WATER            SURFACE WATER        WATER
 LAKE    INFLOW     OUTFLOW      INFLOW     OUTFLOW       USE
   1  5.6254E+04  1.6453E+04  0.0000E+00  0.0000E+00  0.0000E+00
   2  7.6008E+05  8.2200E+04  0.0000E+00  0.0000E+00  0.0000E+00
   3  1.7801E+05  4.7032E+04  0.0000E+00  0.0000E+00  0.0000E+00
   4  8.6899E+05  4.7054E+04  0.0000E+00  0.0000E+00  0.0000E+00

      CONNECTED LAKE   TIME-STEP         STAGE-CHANGE          PERCENT
 LAKE    INFLUX      SURFACE AREA   TIME STEP  CUMULATIVE    DISCREPANCY
   1   0.0000E+00     2.7500E+06  -5.5461E-01 -1.3794E+01       0.000
   2   0.0000E+00     3.2212E+06  -1.1553E+00 -9.2193E+00       0.000
   3   0.0000E+00     1.0000E+06  -4.3810E-01 -1.0960E+01       0.000
   4   0.0000E+00     1.5000E+06  -2.1124E-02 -7.0751E+00       0.000
 --------------------------------------------------------------------------------



            CUMULATIVE HYDROLOGIC BUDGET SUMMARIES FOR SIMULATED LAKES
     (ALL FLUID FLUXES ARE SUMS OF VOLUMES ADDED TO THE LAKE SINCE INITIAL TIME)
     ---------------------------------------------------------------------------
 LAKE       PRECIP       EVAP       RUNOFF
   1     0.0000E+00  7.9011E+07  0.0000E+00
   2     0.0000E+00  5.4705E+07  0.0000E+00
   3     0.0000E+00  2.3288E+07  0.0000E+00
   4     0.0000E+00  2.2002E+07  0.0000E+00

            GROUND WATER            SURFACE WATER
 LAKE    INFLOW     OUTFLOW      INFLOW     OUTFLOW
   1  8.4654E+06  1.4784E+06  0.0000E+00  0.0000E+00
   2  2.4849E+07  1.0836E+06  0.0000E+00  0.0000E+00
   3  3.9015E+06  5.6417E+05  0.0000E+00  0.0000E+00
   4  1.6447E+07  2.4665E+05  0.0000E+00  0.0000E+00

         WATER    CONNECTED LAKE   CHANGE       PERCENT
 LAKE     USE         INFLUX       IN VOL.    DISCREPANCY
   1   0.0000E+00   2.0903E+06  -6.9934E+07      0.000
   2   0.0000E+00  -2.7924E+05  -3.1219E+07      0.000
   3   0.0000E+00   2.9906E+06  -1.6960E+07      0.000
   4   0.0000E+00  -4.8104E+06  -1.0613E+07      0.000
 --------------------------------------------------------------------------------

 
 SOLVING FOR HEAD 
    18 ITERATIONS FOR TIME STEP  48 IN STRESS PERIOD    1

 HEAD/DRAWDOWN PRINTOUT FLAG = 0     TOTAL BUDGET PRINTOUT FLAG = 0
 CELL-BY-CELL FLOW TERM FLAG = 1

 OUTPUT FLAGS FOR ALL LAYERS ARE THE SAME:
   HEAD    DRAWDOWN  HEAD  DRAWDOWN
 PRINTOUT  PRINTOUT  SAVE    SAVE
 ----------------------------------
     0         0       0       0

          WARNING -- SUM OF INTERLAKE FLUXES         0. EXCEEDS10**6 OF THE TOTAL VOLUME


     SECTIONS OF THE LAKE BOTTOM HAVE BECOME DRY.  THE DRYSECTIONS
     LIE ABOVE THE FOLLOWING 30 AQUIFER CELLS (LAYER,ROW,COLUMN):
     (  2,  7,  5)  (  2,  8,  5)  (  2,  9,  5)  (  2, 10,  5)  (  2, 11,  5)
     (  2,  7,  6)  (  2, 11,  6)  (  2,  7,  7)  (  2,  8,  7)  (  2, 10,  7)
     (  2, 11,  7)  (  2,  9,  8)  (  2,  7,  9)  (  2,  8,  9)  (  2, 10,  9)
     (  2, 11,  9)  (  2,  7, 10)  (  2, 11, 10)  (  2,  7, 11)  (  2, 11, 11)
     (  2,  7, 12)  (  2, 11, 12)  (  2,  7, 13)  (  2,  8, 13)  (  2, 10, 13)
     (  2, 11, 13)  (  2,  9, 14)  (  2, 10, 15)  (  2, 10, 16)  (  2,  9, 17)

 PERIOD     1     TIME STEP    48     TIME STEP LENGTH  1.4227E+01
 PERIOD TIME  3.7025E+02     TOTAL SIMULATION TIME  3.7025E+02


                 HYDROLOGIC BUDGET SUMMARIES FOR SIMULATED LAKES
     (ALL FLUID FLUXES ARE VOLUMES ADDED TO THE LAKE DURING PRESENT TIME STEP)
     -------------------------------------------------------------------------
 LAKE    STAGE         VOLUME     VOL.CHANGE      PRECIP     EVAPORATION        RUNOFF
   1   100.6490     1.0035E+07   -1.5309E+06    0.0000E+00    1.6119E+06    0.0000E+00
   2   105.8198     8.8198E+06    3.9117E+04    0.0000E+00    5.8615E+05    0.0000E+00
   3   103.6080     6.6079E+06   -4.3182E+05    0.0000E+00    5.8615E+05    0.0000E+00
   4   107.9025     1.1354E+07   -3.3613E+04    0.0000E+00    8.7923E+05    0.0000E+00

            GROUND WATER            SURFACE WATER        WATER
 LAKE    INFLOW     OUTFLOW      INFLOW     OUTFLOW       USE
   1  8.8341E+04  7.2970E+03  0.0000E+00  0.0000E+00  0.0000E+00
   2  7.6473E+05  1.3946E+05  0.0000E+00  0.0000E+00  0.0000E+00
   3  1.9934E+05  4.5011E+04  0.0000E+00  0.0000E+00  0.0000E+00
   4  8.9657E+05  5.0957E+04  0.0000E+00  0.0000E+00  0.0000E+00

      CONNECTED LAKE   TIME-STEP         STAGE-CHANGE          PERCENT
 LAKE    INFLUX      SURFACE AREA   TIME STEP  CUMULATIVE    DISCREPANCY
   1   0.0000E+00     2.7500E+06  -5.5669E-01 -1.4351E+01       0.000
   2   0.0000E+00     1.0000E+06   3.9118E-02 -9.1802E+00       0.000
   3   0.0000E+00     1.0000E+06  -4.3182E-01 -1.1392E+01       0.000
   4   0.0000E+00     1.5000E+06  -2.2409E-02 -7.0975E+00       0.000
 --------------------------------------------------------------------------------



            CUMULATIVE HYDROLOGIC BUDGET SUMMARIES FOR SIMULATED LAKES
     (ALL FLUID FLUXES ARE SUMS OF VOLUMES ADDED TO THE LAKE SINCE INITIAL TIME)
     ---------------------------------------------------------------------------
 LAKE       PRECIP       EVAP       RUNOFF
   1     0.0000E+00  8.0623E+07  0.0000E+00
   2     0.0000E+00  5.5291E+07  0.0000E+00
   3     0.0000E+00  2.3874E+07  0.0000E+00
   4     0.0000E+00  2.2882E+07  0.0000E+00

            GROUND WATER            SURFACE WATER
 LAKE    INFLOW     OUTFLOW      INFLOW     OUTFLOW
   1  8.5537E+06  1.4857E+06  0.0000E+00  0.0000E+00
   2  2.5614E+07  1.2231E+06  0.0000E+00  0.0000E+00
   3  4.1008E+06  6.0918E+05  0.0000E+00  0.0000E+00
   4  1.7343E+07  2.9761E+05  0.0000E+00  0.0000E+00

         WATER    CONNECTED LAKE   CHANGE       PERCENT
 LAKE     USE         INFLUX       IN VOL.    DISCREPANCY
   1   0.0000E+00   2.0903E+06  -7.1464E+07      0.000
   2   0.0000E+00  -2.7924E+05  -3.1180E+07      0.000
   3   0.0000E+00   2.9906E+06  -1.7392E+07      0.000
   4   0.0000E+00  -4.8104E+06  -1.0646E+07      0.000
 --------------------------------------------------------------------------------

 
 SOLVING FOR HEAD 
    20 ITERATIONS FOR TIME STEP  49 IN STRESS PERIOD    1

 HEAD/DRAWDOWN PRINTOUT FLAG = 0     TOTAL BUDGET PRINTOUT FLAG = 0
 CELL-BY-CELL FLOW TERM FLAG = 1

 OUTPUT FLAGS FOR ALL LAYERS ARE THE SAME:
   HEAD    DRAWDOWN  HEAD  DRAWDOWN
 PRINTOUT  PRINTOUT  SAVE    SAVE
 ----------------------------------
     0         0       0       0

          WARNING -- SUM OF INTERLAKE FLUXES         0. EXCEEDS10**6 OF THE TOTAL VOLUME


     SECTIONS OF THE LAKE BOTTOM HAVE BECOME DRY.  THE DRYSECTIONS
     LIE ABOVE THE FOLLOWING 30 AQUIFER CELLS (LAYER,ROW,COLUMN):
     (  2,  7,  5)  (  2,  8,  5)  (  2,  9,  5)  (  2, 10,  5)  (  2, 11,  5)
     (  2,  7,  6)  (  2, 11,  6)  (  2,  7,  7)  (  2,  8,  7)  (  2, 10,  7)
     (  2, 11,  7)  (  2,  9,  8)  (  2,  7,  9)  (  2,  8,  9)  (  2, 10,  9)
     (  2, 11,  9)  (  2,  7, 10)  (  2, 11, 10)  (  2,  7, 11)  (  2, 11, 11)
     (  2,  7, 12)  (  2, 11, 12)  (  2,  7, 13)  (  2,  8, 13)  (  2, 10, 13)
     (  2, 11, 13)  (  2,  9, 14)  (  2, 10, 15)  (  2, 10, 16)  (  2,  9, 17)

 PERIOD     1     TIME STEP    49     TIME STEP LENGTH  1.4654E+01
 PERIOD TIME  3.8491E+02     TOTAL SIMULATION TIME  3.8491E+02


                 HYDROLOGIC BUDGET SUMMARIES FOR SIMULATED LAKES
     (ALL FLUID FLUXES ARE VOLUMES ADDED TO THE LAKE DURING PRESENT TIME STEP)
     -------------------------------------------------------------------------
 LAKE    STAGE         VOLUME     VOL.CHANGE      PRECIP     EVAPORATION        RUNOFF
   1   100.0911     8.5004E+06   -1.5343E+06    0.0000E+00    1.6603E+06    0.0000E+00
   2   105.8280     8.8279E+06    8.1350E+03    0.0000E+00    6.0374E+05    0.0000E+00
   3   103.1834     6.1834E+06   -4.2454E+05    0.0000E+00    6.0374E+05    0.0000E+00
   4   107.8790     1.1318E+07   -3.5175E+04    0.0000E+00    9.0560E+05    0.0000E+00

            GROUND WATER            SURFACE WATER        WATER
 LAKE    INFLOW     OUTFLOW      INFLOW     OUTFLOW       USE
   1  1.2756E+05  1.5817E+03  0.0000E+00  0.0000E+00  0.0000E+00
   2  7.9831E+05  1.8644E+05  0.0000E+00  0.0000E+00  0.0000E+00
   3  2.2217E+05  4.2973E+04  0.0000E+00  0.0000E+00  0.0000E+00
   4  9.2525E+05  5.4824E+04  0.0000E+00  0.0000E+00  0.0000E+00

      CONNECTED LAKE   TIME-STEP         STAGE-CHANGE          PERCENT
 LAKE    INFLUX      SURFACE AREA   TIME STEP  CUMULATIVE    DISCREPANCY
   1   0.0000E+00     2.7500E+06  -5.5793E-01 -1.4909E+01       0.000
   2   0.0000E+00     1.0000E+06   8.1343E-03 -9.1720E+00       0.000
   3   0.0000E+00     1.0000E+06  -4.2454E-01 -1.1817E+01       0.000
   4   0.0000E+00     1.5000E+06  -2.3450E-02 -7.1210E+00       0.000
 --------------------------------------------------------------------------------



            CUMULATIVE HYDROLOGIC BUDGET SUMMARIES FOR SIMULATED LAKES
     (ALL FLUID FLUXES ARE SUMS OF VOLUMES ADDED TO THE LAKE SINCE INITIAL TIME)
     ---------------------------------------------------------------------------
 LAKE       PRECIP       EVAP       RUNOFF
   1     0.0000E+00  8.2283E+07  0.0000E+00
   2     0.0000E+00  5.5895E+07  0.0000E+00
   3     0.0000E+00  2.4478E+07  0.0000E+00
   4     0.0000E+00  2.3787E+07  0.0000E+00

            GROUND WATER            SURFACE WATER
 LAKE    INFLOW     OUTFLOW      INFLOW     OUTFLOW
   1  8.6813E+06  1.4872E+06  0.0000E+00  0.0000E+00
   2  2.6412E+07  1.4095E+06  0.0000E+00  0.0000E+00
   3  4.3230E+06  6.5216E+05  0.0000E+00  0.0000E+00
   4  1.8269E+07  3.5243E+05  0.0000E+00  0.0000E+00

         WATER    CONNECTED LAKE   CHANGE       PERCENT
 LAKE     USE         INFLUX       IN VOL.    DISCREPANCY
   1   0.0000E+00   2.0903E+06  -7.2999E+07      0.000
   2   0.0000E+00  -2.7924E+05  -3.1172E+07      0.000
   3   0.0000E+00   2.9906E+06  -1.7816E+07      0.000
   4   0.0000E+00  -4.8104E+06  -1.0681E+07      0.000
 --------------------------------------------------------------------------------

 
 SOLVING FOR HEAD 
    20 ITERATIONS FOR TIME STEP  50 IN STRESS PERIOD    1

 MAXIMUM HEAD CHANGE FOR EACH ITERATION:

    HEAD CHANGE   HEAD CHANGE   HEAD CHANGE   HEAD CHANGE   HEAD CHANGE
  LAYER,ROW,COL LAYER,ROW,COL LAYER,ROW,COL LAYER,ROW,COL LAYER,ROW,COL
 ----------------------------------------------------------------------
    -0.2674        0.1431       -0.1190       -0.5346E-01   -0.6453E-01
  (  2,  8,  8) (  5, 14,  5) (  3, 10, 10) (  3,  8, 12) (  3, 10, 10)
    -0.2477E-01   -0.1619E-01   -0.8774E-02   -0.1042E-01   -0.3971E-02
  (  3,  8, 10) (  5,  9, 11) (  3,  9, 11) (  3, 10, 10) (  3,  8, 12)
    -0.4571E-02   -0.2116E-02   -0.1680E-02   -0.7488E-03   -0.9064E-03
  (  3,  9,  9) (  5,  9, 10) (  3, 10, 10) (  3,  8, 12) (  3, 10, 10)
    -0.3529E-03   -0.2296E-03   -0.1197E-03   -0.1507E-03   -0.5014E-04
  (  3,  8, 10) (  5,  9, 11) (  3,  9, 11) (  3, 10, 10) (  3,  8, 11)


 HEAD/DRAWDOWN PRINTOUT FLAG = 1     TOTAL BUDGET PRINTOUT FLAG = 1
 CELL-BY-CELL FLOW TERM FLAG = 1

 OUTPUT FLAGS FOR EACH LAYER:
          HEAD    DRAWDOWN  HEAD  DRAWDOWN
 LAYER  PRINTOUT  PRINTOUT  SAVE    SAVE
 -----------------------------------------
    1       0         0       0       0
    2       0         0       0       0
    3       0         0       0       0
    4       0         0       0       0
    5       1         0       0       0

          WARNING -- SUM OF INTERLAKE FLUXES         0. EXCEEDS10**6 OF THE TOTAL VOLUME


     SECTIONS OF THE LAKE BOTTOM HAVE BECOME DRY.  THE DRYSECTIONS
     LIE ABOVE THE FOLLOWING 30 AQUIFER CELLS (LAYER,ROW,COLUMN):
     (  2,  7,  5)  (  2,  8,  5)  (  2,  9,  5)  (  2, 10,  5)  (  2, 11,  5)
     (  2,  7,  6)  (  2, 11,  6)  (  2,  7,  7)  (  2,  8,  7)  (  2, 10,  7)
     (  2, 11,  7)  (  2,  9,  8)  (  2,  7,  9)  (  2,  8,  9)  (  2, 10,  9)
     (  2, 11,  9)  (  2,  7, 10)  (  2, 11, 10)  (  2,  7, 11)  (  2, 11, 11)
     (  2,  7, 12)  (  2, 11, 12)  (  2,  7, 13)  (  2,  8, 13)  (  2, 10, 13)
     (  2, 11, 13)  (  2,  9, 14)  (  2, 10, 15)  (  2, 10, 16)  (  2,  9, 17)

 PERIOD     1     TIME STEP    50     TIME STEP LENGTH  1.5093E+01
 PERIOD TIME  4.0000E+02     TOTAL SIMULATION TIME  4.0000E+02


                 HYDROLOGIC BUDGET SUMMARIES FOR SIMULATED LAKES
     (ALL FLUID FLUXES ARE VOLUMES ADDED TO THE LAKE DURING PRESENT TIME STEP)
     -------------------------------------------------------------------------
 LAKE    STAGE         VOLUME     VOL.CHANGE      PRECIP     EVAPORATION        RUNOFF
   1    99.5330     6.9656E+06   -1.5348E+06    0.0000E+00    1.7101E+06    0.0000E+00
   2   105.8247     8.8246E+06   -3.3000E+03    0.0000E+00    6.2185E+05    0.0000E+00
   3   102.7670     5.7669E+06   -4.1646E+05    0.0000E+00    6.2185E+05    0.0000E+00
   4   107.8547     1.1282E+07   -3.6478E+04    0.0000E+00    9.3277E+05    0.0000E+00

            GROUND WATER            SURFACE WATER        WATER
 LAKE    INFLOW     OUTFLOW      INFLOW     OUTFLOW       USE
   1  1.7545E+05  1.6662E+02  0.0000E+00  0.0000E+00  0.0000E+00
   2  8.3779E+05  2.1924E+05  0.0000E+00  0.0000E+00  0.0000E+00
   3  2.4622E+05  4.0830E+04  0.0000E+00  0.0000E+00  0.0000E+00
   4  9.5499E+05  5.8701E+04  0.0000E+00  0.0000E+00  0.0000E+00

      CONNECTED LAKE   TIME-STEP         STAGE-CHANGE          PERCENT
 LAKE    INFLUX      SURFACE AREA   TIME STEP  CUMULATIVE    DISCREPANCY
   1   0.0000E+00     2.7500E+06  -5.5811E-01 -1.5467E+01       0.000
   2   0.0000E+00     1.0000E+06  -3.3001E-03 -9.1753E+00       0.000
   3   0.0000E+00     1.0000E+06  -4.1646E-01 -1.2233E+01       0.000
   4   0.0000E+00     1.5000E+06  -2.4319E-02 -7.1453E+00       0.000
 --------------------------------------------------------------------------------



            CUMULATIVE HYDROLOGIC BUDGET SUMMARIES FOR SIMULATED LAKES
     (ALL FLUID FLUXES ARE SUMS OF VOLUMES ADDED TO THE LAKE SINCE INITIAL TIME)
     ---------------------------------------------------------------------------
 LAKE       PRECIP       EVAP       RUNOFF
   1     0.0000E+00  8.3993E+07  0.0000E+00
   2     0.0000E+00  5.6517E+07  0.0000E+00
   3     0.0000E+00  2.5100E+07  0.0000E+00
   4     0.0000E+00  2.4720E+07  0.0000E+00

            GROUND WATER            SURFACE WATER
 LAKE    INFLOW     OUTFLOW      INFLOW     OUTFLOW
   1  8.8567E+06  1.4874E+06  0.0000E+00  0.0000E+00
   2  2.7250E+07  1.6288E+06  0.0000E+00  0.0000E+00
   3  4.5692E+06  6.9298E+05  0.0000E+00  0.0000E+00
   4  1.9224E+07  4.1113E+05  0.0000E+00  0.0000E+00

         WATER    CONNECTED LAKE   CHANGE       PERCENT
 LAKE     USE         INFLUX       IN VOL.    DISCREPANCY
   1   0.0000E+00   2.0903E+06  -7.4534E+07      0.000
   2   0.0000E+00  -2.7924E+05  -3.1175E+07      0.000
   3   0.0000E+00   2.9906E+06  -1.8233E+07      0.000
   4   0.0000E+00  -4.8104E+06  -1.0718E+07      0.000
 --------------------------------------------------------------------------------

1
              HEAD IN LAYER   5 AT END OF TIME STEP  50 IN STRESS PERIOD    1
  ---------------------------------------------------------------------------

          1      2      3      4      5      6      7      8      9     10
 .........................................................................
   1   160.0  158.9  157.3  155.8  154.6  153.9  153.1  152.3  151.5  150.8
   2   160.0  154.2  150.3  147.7  146.2  145.2  144.2  143.4  142.5  141.7
   3   160.0  151.9  145.9  142.0  139.7  138.2  136.9  135.7  134.8  133.9
   4   160.0  151.0  143.5  137.3  133.5  131.4  129.6  128.2  127.0  126.2
   5   160.0  150.4  141.5  132.8  127.5  124.6  122.5  120.8  119.7  118.9
   6   160.0  149.9  139.4  127.8  119.8  116.3  114.1  112.7  111.4  110.5
   7   160.0  149.7  138.1  123.6  107.7  105.6  104.2  105.0  101.8  100.9
   8   160.0  149.6  137.6  122.2  107.1  105.8  102.7  102.5   99.6   99.6
   9   160.0  149.5  137.5  121.8  107.1  105.8  105.5  101.0   99.6   99.5
  10   160.0  149.6  137.6  122.2  107.1  105.8  102.7  102.5   99.6   99.6
  11   160.0  149.7  138.1  123.6  107.7  105.6  104.2  105.0  101.8  100.9
  12   160.0  149.9  139.4  127.8  119.8  116.3  114.1  112.7  111.4  110.5
  13   160.0  150.4  141.5  132.8  127.5  124.6  122.5  120.8  119.7  118.9
  14   160.0  151.0  143.5  137.3  133.5  131.4  129.6  128.2  127.0  126.2
  15   160.0  151.9  145.9  142.0  139.7  138.2  136.9  135.7  134.8  133.9
  16   160.0  154.2  150.3  147.7  146.2  145.2  144.2  143.4  142.5  141.7
  17   160.0  158.9  157.3  155.8  154.6  153.9  153.1  152.3  151.5  150.8
1
              HEAD IN LAYER   5 AT END OF TIME STEP  50 IN STRESS PERIOD    1
  ---------------------------------------------------------------------------

         11     12     13     14     15     16     17     18     19     20
 .........................................................................
   1   150.0  149.2  148.5  147.7  146.9  146.1  145.4  144.6  143.9  142.7
   2   140.9  140.2  139.4  138.7  138.1  137.4  136.7  136.1  135.6  135.0
   3   133.2  132.6  132.1  131.7  131.4  131.1  130.8  130.6  130.5  130.7
   4   125.6  125.2  125.0  124.9  125.0  125.2  125.7  126.3  127.1  128.7
   5   118.4  118.2  118.3  118.6  119.1  119.9  120.9  122.2  123.9  126.9
   6   110.2  110.3  110.9  112.0  113.1  114.3  115.8  117.6  120.0  124.5
   7   100.6  100.8  101.9  105.7  107.3  108.6  110.6  112.4  114.8  122.0
   8    99.6   99.6   99.6  102.5  102.9  103.1  106.3  108.0  108.4  120.3
   9    99.5   99.5   99.6  100.3  102.7  102.8  103.8  107.7  108.2  119.8
  10    99.6   99.6   99.5  102.2  102.1  103.1  106.3  108.0  108.5  120.3
  11   100.6  100.8  101.8  105.5  107.0  108.5  110.5  112.4  114.9  122.1
  12   110.2  110.3  110.8  111.9  113.1  114.3  115.8  117.6  120.0  124.5
  13   118.4  118.2  118.3  118.6  119.1  119.9  120.9  122.2  123.9  126.9
  14   125.6  125.2  125.0  124.9  125.0  125.2  125.7  126.3  127.1  128.7
  15   133.2  132.6  132.1  131.7  131.4  131.1  130.8  130.6  130.5  130.7
  16   140.9  140.2  139.4  138.7  138.1  137.4  136.7  136.1  135.6  135.0
  17   150.0  149.2  148.5  147.7  146.9  146.1  145.4  144.6  143.9  142.7
1
              HEAD IN LAYER   5 AT END OF TIME STEP  50 IN STRESS PERIOD    1
  ---------------------------------------------------------------------------

         21     22
 .................
   1   141.1  140.0
   2   135.7  140.0
   3   133.2  140.0
   4   132.4  140.0
   5   131.9  140.0
   6   131.3  140.0
   7   130.9  140.0
   8   130.6  140.0
   9   130.6  140.0
  10   130.6  140.0
  11   130.9  140.0
  12   131.3  140.0
  13   131.9  140.0
  14   132.4  140.0
  15   133.2  140.0
  16   135.7  140.0
  17   141.1  140.0
1
  VOLUMETRIC BUDGET FOR ENTIRE MODEL AT END OF TIME STEP 50 IN STRESS PERIOD   1
  ------------------------------------------------------------------------------

     CUMULATIVE VOLUMES      L**3       RATES FOR THIS TIME STEP      L**3/T
     ------------------                 ------------------------

           IN:                                      IN:
           ---                                      ---
             STORAGE =    20820468.0000               STORAGE =       41919.2070
       CONSTANT HEAD =   785228864.0000         CONSTANT HEAD =     1478595.8750
                  ET =           0.0000                    ET =           0.0000
            RECHARGE =           0.0000              RECHARGE =           0.0000
     SPECIFIED FLOWS =           0.0000       SPECIFIED FLOWS =           0.0000
       LAKE  SEEPAGE =     4220303.5000         LAKE  SEEPAGE =       21130.8496

            TOTAL IN =   810269632.0000              TOTAL IN =     1541645.8750

          OUT:                                     OUT:
          ----                                     ----
             STORAGE =   475648288.0000               STORAGE =      234405.1406
       CONSTANT HEAD =           0.0000         CONSTANT HEAD =           0.0000
                  ET =   274732800.0000                    ET =     1160532.5000
            RECHARGE =           0.0000              RECHARGE =           0.0000
     SPECIFIED FLOWS =           0.0000       SPECIFIED FLOWS =           0.0000
       LAKE  SEEPAGE =    59899588.0000         LAKE  SEEPAGE =      146716.5625

           TOTAL OUT =   810280704.0000             TOTAL OUT =     1541654.2500

            IN - OUT =      -11072.0000              IN - OUT =          -8.3750

 PERCENT DISCREPANCY =           0.00     PERCENT DISCREPANCY =           0.00






          TIME SUMMARY AT END OF TIME STEP  50 IN STRESS PERIOD    1
                    SECONDS     MINUTES      HOURS       DAYS        YEARS
                    -----------------------------------------------------------
   TIME STEP LENGTH 1.30407E+06  21734.      362.24      15.093     4.13234E-02
 STRESS PERIOD TIME 3.45600E+07 5.76000E+05  9600.0      400.00      1.0951    
         TOTAL TIME 3.45600E+07 5.76000E+05  9600.0      400.00      1.0951    
1
1
                            STRESS PERIOD NO.    2, LENGTH =   400.0000    
                            -----------------------------------------------

                              NUMBER OF TIME STEPS =    50

                               MULTIPLIER FOR DELT =     1.030

                            INITIAL TIME STEP SIZE =   3.546201    

 REUSING SURF FROM LAST STRESS PERIOD

  EVAPOTRANSPIRATION RATE =  1.410000E-02

 REUSING EXDP FROM LAST STRESS PERIOD

                 RECHARGE =  1.160000E-02




 If any subsequent steady-state stress periods, min. and max. stages for each lake will be read in Record 9a.




 REUSING LAKE CONFIGURATION DATA FROM LAST STRESS PERIOD


 LAKE       PRECIP     EVAP     RUNOFF   WITHDRAW   BOTTOM     AREA
----------------------------------------------------------------------
   1     1.160E-02 1.030E-02 0.000E+00  0.000E+00 9.700E+01 6.750E+06
   2     1.160E-02 1.030E-02 0.000E+00  0.000E+00 9.700E+01 3.750E+06
   3     1.160E-02 1.030E-02 0.000E+00  0.000E+00 9.700E+01 1.750E+06
   4     1.160E-02 1.030E-02 0.000E+00  0.000E+00 9.700E+01 1.500E+06




         C               INTERFACE CONDUCTANCES BETWEEN LAKE AND AQUIFER CELLS
   L     O          (IF TYPE = 6, CONDUCTANCE (L^2/T) IS BETWEEN AQUIFER CELL AND OVERLYING LAKE CELL.)
   A     L  L  T    (IF TYPE = 1 TO 4, CONDUCTANCES ARE PER UNIT SATURATED THICKNESS (L/T).)
   Y  R  U  A  Y
   E  O  M  K  P                        LAKEBED      C O N D U C T A N C E S
   R  W  N  E  E     DELTA Y   DELTA X  LEAKANCE   LAKEBED   AQUIFER  COMBINED
 _______________________________________________________________________________
   1  7  4  2  2    5.00E+02  1.00E+03  1.00E-01  5.00E+01  3.00E+01  1.88E+01
   1  8  4  2  2    5.00E+02  1.00E+03  1.00E-01  5.00E+01  3.00E+01  1.88E+01
   1  9  4  2  2    5.00E+02  1.00E+03  1.00E-01  5.00E+01  3.00E+01  1.88E+01
   1 10  4  2  2    5.00E+02  1.00E+03  1.00E-01  5.00E+01  3.00E+01  1.88E+01
   1 11  4  2  2    5.00E+02  1.00E+03  1.00E-01  5.00E+01  3.00E+01  1.88E+01
   1  6  5  2  3    1.00E+03  5.00E+02  1.00E-01  5.00E+01  3.00E+01  1.88E+01
   2  7  5  2  6    5.00E+02  5.00E+02  1.00E-01  2.50E+04  1.50E+06  2.46E+04
   2  8  5  2  6    5.00E+02  5.00E+02  1.00E-01  2.50E+04  1.50E+06  2.46E+04
   2  8  5  2  2    5.00E+02  5.00E+02  1.00E-01  5.00E+01  6.00E+01  2.73E+01
   2  9  5  2  6    5.00E+02  5.00E+02  1.00E-01  2.50E+04  1.50E+06  2.46E+04
   2  9  5  2  2    5.00E+02  5.00E+02  1.00E-01  5.00E+01  6.00E+01  2.73E+01
   2 10  5  2  6    5.00E+02  5.00E+02  1.00E-01  2.50E+04  1.50E+06  2.46E+04
   2 10  5  2  2    5.00E+02  5.00E+02  1.00E-01  5.00E+01  6.00E+01  2.73E+01
   2 11  5  2  6    5.00E+02  5.00E+02  1.00E-01  2.50E+04  1.50E+06  2.46E+04
   1 12  5  2  4    1.00E+03  5.00E+02  1.00E-01  5.00E+01  3.00E+01  1.88E+01
   1  6  6  2  3    1.00E+03  5.00E+02  1.00E-01  5.00E+01  3.00E+01  1.88E+01
   2  7  6  2  6    5.00E+02  5.00E+02  1.00E-01  2.50E+04  1.50E+06  2.46E+04
   2  7  6  2  3    5.00E+02  5.00E+02  1.00E-01  5.00E+01  6.00E+01  2.73E+01
   3  8  6  2  6    5.00E+02  5.00E+02  1.00E-01  2.50E+04  1.50E+06  2.46E+04
   3  9  6  2  6    5.00E+02  5.00E+02  1.00E-01  2.50E+04  1.50E+06  2.46E+04
   3 10  6  2  6    5.00E+02  5.00E+02  1.00E-01  2.50E+04  1.50E+06  2.46E+04
   2 11  6  2  6    5.00E+02  5.00E+02  1.00E-01  2.50E+04  1.50E+06  2.46E+04
   2 11  6  2  4    5.00E+02  5.00E+02  1.00E-01  5.00E+01  6.00E+01  2.73E+01
   1 12  6  2  4    1.00E+03  5.00E+02  1.00E-01  5.00E+01  3.00E+01  1.88E+01
   1  6  7  2  3    1.00E+03  5.00E+02  1.00E-01  5.00E+01  3.00E+01  1.88E+01
   2  7  7  2  6    5.00E+02  5.00E+02  1.00E-01  2.50E+04  1.50E+06  2.46E+04
   2  8  7  2  6    5.00E+02  5.00E+02  1.00E-01  2.50E+04  1.50E+06  2.46E+04
   2  8  7  2  1    5.00E+02  5.00E+02  1.00E-01  5.00E+01  6.00E+01  2.73E+01
   2  8  7  2  3    5.00E+02  5.00E+02  1.00E-01  5.00E+01  6.00E+01  2.73E+01
   3  9  7  2  6    5.00E+02  5.00E+02  1.00E-01  2.50E+04  1.50E+06  2.46E+04
   2 10  7  2  6    5.00E+02  5.00E+02  1.00E-01  2.50E+04  1.50E+06  2.46E+04
   2 10  7  2  1    5.00E+02  5.00E+02  1.00E-01  5.00E+01  6.00E+01  2.73E+01
   2 10  7  2  4    5.00E+02  5.00E+02  1.00E-01  5.00E+01  6.00E+01  2.73E+01
   2 11  7  2  6    5.00E+02  5.00E+02  1.00E-01  2.50E+04  1.50E+06  2.46E+04
   1 12  7  2  4    1.00E+03  5.00E+02  1.00E-01  5.00E+01  3.00E+01  1.88E+01
   1  7  8  2  1    5.00E+02  5.00E+02  1.00E-01  5.00E+01  6.00E+01  2.73E+01
   1  7  8  1  2    5.00E+02  5.00E+02  1.00E-01  5.00E+01  6.00E+01  2.73E+01
   1  8  8  2  1    5.00E+02  5.00E+02  1.00E-01  5.00E+01  6.00E+01  2.73E+01
   1  8  8  1  2    5.00E+02  5.00E+02  1.00E-01  5.00E+01  6.00E+01  2.73E+01
   1  8  8  1  3    5.00E+02  5.00E+02  1.00E-01  5.00E+01  6.00E+01  2.73E+01
   2  9  8  1  6    5.00E+02  5.00E+02  1.00E-01  2.50E+04  1.50E+06  2.46E+04
   2  9  8  2  1    5.00E+02  5.00E+02  1.00E-01  5.00E+01  6.00E+01  2.73E+01
   2  9  8  1  2    5.00E+02  5.00E+02  1.00E-01  5.00E+01  6.00E+01  2.73E+01
   1 10  8  2  1    5.00E+02  5.00E+02  1.00E-01  5.00E+01  6.00E+01  2.73E+01
   1 10  8  1  2    5.00E+02  5.00E+02  1.00E-01  5.00E+01  6.00E+01  2.73E+01
   1 10  8  1  4    5.00E+02  5.00E+02  1.00E-01  5.00E+01  6.00E+01  2.73E+01
   1 11  8  2  1    5.00E+02  5.00E+02  1.00E-01  5.00E+01  6.00E+01  2.73E+01
   1 11  8  1  2    5.00E+02  5.00E+02  1.00E-01  5.00E+01  6.00E+01  2.73E+01
   1  6  9  1  3    1.00E+03  5.00E+02  1.00E-01  5.00E+01  3.00E+01  1.88E+01
   2  7  9  1  6    5.00E+02  5.00E+02  1.00E-01  2.50E+04  1.50E+06  2.46E+04
   2  8  9  1  6    5.00E+02  5.00E+02  1.00E-01  2.50E+04  1.50E+06  2.46E+04
   2  8  9  1  2    5.00E+02  5.00E+02  1.00E-01  5.00E+01  6.00E+01  2.73E+01
   2  8  9  1  3    5.00E+02  5.00E+02  1.00E-01  5.00E+01  6.00E+01  2.73E+01
   3  9  9  1  6    5.00E+02  5.00E+02  1.00E-01  2.50E+04  1.50E+06  2.46E+04
   2 10  9  1  6    5.00E+02  5.00E+02  1.00E-01  2.50E+04  1.50E+06  2.46E+04
   2 10  9  1  2    5.00E+02  5.00E+02  1.00E-01  5.00E+01  6.00E+01  2.73E+01
   2 10  9  1  4    5.00E+02  5.00E+02  1.00E-01  5.00E+01  6.00E+01  2.73E+01
   2 11  9  1  6    5.00E+02  5.00E+02  1.00E-01  2.50E+04  1.50E+06  2.46E+04
   1 12  9  1  4    1.00E+03  5.00E+02  1.00E-01  5.00E+01  3.00E+01  1.88E+01
   1  6 10  1  3    1.00E+03  5.00E+02  1.00E-01  5.00E+01  3.00E+01  1.88E+01
   2  7 10  1  6    5.00E+02  5.00E+02  1.00E-01  2.50E+04  1.50E+06  2.46E+04
   2  7 10  1  3    5.00E+02  5.00E+02  1.00E-01  5.00E+01  6.00E+01  2.73E+01
   3  8 10  1  6    5.00E+02  5.00E+02  1.00E-01  2.50E+04  1.50E+06  2.46E+04
   3  9 10  1  6    5.00E+02  5.00E+02  1.00E-01  2.50E+04  1.50E+06  2.46E+04
   3 10 10  1  6    5.00E+02  5.00E+02  1.00E-01  2.50E+04  1.50E+06  2.46E+04
   2 11 10  1  6    5.00E+02  5.00E+02  1.00E-01  2.50E+04  1.50E+06  2.46E+04
   2 11 10  1  4    5.00E+02  5.00E+02  1.00E-01  5.00E+01  6.00E+01  2.73E+01
   1 12 10  1  4    1.00E+03  5.00E+02  1.00E-01  5.00E+01  3.00E+01  1.88E+01
   1  6 11  1  3    1.00E+03  5.00E+02  1.00E-01  5.00E+01  3.00E+01  1.88E+01
   2  7 11  1  6    5.00E+02  5.00E+02  1.00E-01  2.50E+04  1.50E+06  2.46E+04
   2  7 11  1  3    5.00E+02  5.00E+02  1.00E-01  5.00E+01  6.00E+01  2.73E+01
   3  8 11  1  6    5.00E+02  5.00E+02  1.00E-01  2.50E+04  1.50E+06  2.46E+04
   3  9 11  1  6    5.00E+02  5.00E+02  1.00E-01  2.50E+04  1.50E+06  2.46E+04
   3 10 11  1  6    5.00E+02  5.00E+02  1.00E-01  2.50E+04  1.50E+06  2.46E+04
   2 11 11  1  6    5.00E+02  5.00E+02  1.00E-01  2.50E+04  1.50E+06  2.46E+04
   2 11 11  1  4    5.00E+02  5.00E+02  1.00E-01  5.00E+01  6.00E+01  2.73E+01
   1 12 11  1  4    1.00E+03  5.00E+02  1.00E-01  5.00E+01  3.00E+01  1.88E+01
   1  6 12  1  3    1.00E+03  5.00E+02  1.00E-01  5.00E+01  3.00E+01  1.88E+01
   2  7 12  1  6    5.00E+02  5.00E+02  1.00E-01  2.50E+04  1.50E+06  2.46E+04
   2  7 12  1  3    5.00E+02  5.00E+02  1.00E-01  5.00E+01  6.00E+01  2.73E+01
   3  8 12  1  6    5.00E+02  5.00E+02  1.00E-01  2.50E+04  1.50E+06  2.46E+04
   3  9 12  1  6    5.00E+02  5.00E+02  1.00E-01  2.50E+04  1.50E+06  2.46E+04
   3 10 12  1  6    5.00E+02  5.00E+02  1.00E-01  2.50E+04  1.50E+06  2.46E+04
   2 11 12  1  6    5.00E+02  5.00E+02  1.00E-01  2.50E+04  1.50E+06  2.46E+04
   2 11 12  1  4    5.00E+02  5.00E+02  1.00E-01  5.00E+01  6.00E+01  2.73E+01
   1 12 12  1  4    1.00E+03  5.00E+02  1.00E-01  5.00E+01  3.00E+01  1.88E+01
   1  6 13  1  3    1.00E+03  5.00E+02  1.00E-01  5.00E+01  3.00E+01  1.88E+01
   2  7 13  1  6    5.00E+02  5.00E+02  1.00E-01  2.50E+04  1.50E+06  2.46E+04
   2  8 13  1  6    5.00E+02  5.00E+02  1.00E-01  2.50E+04  1.50E+06  2.46E+04
   2  8 13  1  1    5.00E+02  5.00E+02  1.00E-01  5.00E+01  6.00E+01  2.73E+01
   2  8 13  1  3    5.00E+02  5.00E+02  1.00E-01  5.00E+01  6.00E+01  2.73E+01
   3  9 13  1  6    5.00E+02  5.00E+02  1.00E-01  2.50E+04  1.50E+06  2.46E+04
   2 10 13  1  6    5.00E+02  5.00E+02  1.00E-01  2.50E+04  1.50E+06  2.46E+04
   2 10 13  1  1    5.00E+02  5.00E+02  1.00E-01  5.00E+01  6.00E+01  2.73E+01
   2 10 13  1  4    5.00E+02  5.00E+02  1.00E-01  5.00E+01  6.00E+01  2.73E+01
   2 11 13  1  6    5.00E+02  5.00E+02  1.00E-01  2.50E+04  1.50E+06  2.46E+04
   1 12 13  1  4    1.00E+03  5.00E+02  1.00E-01  5.00E+01  3.00E+01  1.88E+01
   1  7 14  1  1    5.00E+02  5.00E+02  1.00E-01  5.00E+01  6.00E+01  2.73E+01
   1  8 14  1  1    5.00E+02  5.00E+02  1.00E-01  5.00E+01  6.00E+01  2.73E+01
   1  8 14  3  2    5.00E+02  5.00E+02  1.00E-01  5.00E+01  6.00E+01  2.73E+01
   1  8 14  1  3    5.00E+02  5.00E+02  1.00E-01  5.00E+01  6.00E+01  2.73E+01
   2  8 14  3  2    5.00E+02  5.00E+02  1.00E-01  5.00E+01  6.00E+01  2.73E+01
   2  9 14  1  6    5.00E+02  5.00E+02  1.00E-01  2.50E+04  1.50E+06  2.46E+04
   2  9 14  1  1    5.00E+02  5.00E+02  1.00E-01  5.00E+01  6.00E+01  2.73E+01
   2  9 14  3  2    5.00E+02  5.00E+02  1.00E-01  5.00E+01  6.00E+01  2.73E+01
   1 10 14  1  1    5.00E+02  5.00E+02  1.00E-01  5.00E+01  6.00E+01  2.73E+01
   1 10 14  3  2    5.00E+02  5.00E+02  1.00E-01  5.00E+01  6.00E+01  2.73E+01
   1 10 14  1  4    5.00E+02  5.00E+02  1.00E-01  5.00E+01  6.00E+01  2.73E+01
   1 11 14  1  1    5.00E+02  5.00E+02  1.00E-01  5.00E+01  6.00E+01  2.73E+01
   1  7 15  3  3    5.00E+02  5.00E+02  1.00E-01  5.00E+01  6.00E+01  2.73E+01
   2  7 15  3  3    5.00E+02  5.00E+02  1.00E-01  5.00E+01  6.00E+01  2.73E+01
   3  8 15  3  6    5.00E+02  5.00E+02  1.00E-01  2.50E+04  1.50E+06  2.46E+04
   3  9 15  3  6    5.00E+02  5.00E+02  1.00E-01  2.50E+04  1.50E+06  2.46E+04
   2 10 15  3  6    5.00E+02  5.00E+02  1.00E-01  2.50E+04  1.50E+06  2.46E+04
   2 10 15  3  4    5.00E+02  5.00E+02  1.00E-01  5.00E+01  6.00E+01  2.73E+01
   1 11 15  3  4    5.00E+02  5.00E+02  1.00E-01  5.00E+01  6.00E+01  2.73E+01
   1  7 16  3  3    5.00E+02  5.00E+02  1.00E-01  5.00E+01  6.00E+01  2.73E+01
   2  7 16  3  3    5.00E+02  5.00E+02  1.00E-01  5.00E+01  6.00E+01  2.73E+01
   3  8 16  3  6    5.00E+02  5.00E+02  1.00E-01  2.50E+04  1.50E+06  2.46E+04
   3  9 16  3  6    5.00E+02  5.00E+02  1.00E-01  2.50E+04  1.50E+06  2.46E+04
   2 10 16  3  6    5.00E+02  5.00E+02  1.00E-01  2.50E+04  1.50E+06  2.46E+04
   2 10 16  3  4    5.00E+02  5.00E+02  1.00E-01  5.00E+01  6.00E+01  2.73E+01
   1 11 16  3  4    5.00E+02  5.00E+02  1.00E-01  5.00E+01  6.00E+01  2.73E+01
   1  8 17  3  1    5.00E+02  5.00E+02  1.00E-01  5.00E+01  6.00E+01  2.73E+01
   1  8 17  4  2    5.00E+02  5.00E+02  1.00E-01  5.00E+01  6.00E+01  2.73E+01
   1  8 17  3  3    5.00E+02  5.00E+02  1.00E-01  5.00E+01  6.00E+01  2.73E+01
   2  8 17  3  1    5.00E+02  5.00E+02  1.00E-01  5.00E+01  6.00E+01  2.73E+01
   2  8 17  4  2    5.00E+02  5.00E+02  1.00E-01  5.00E+01  6.00E+01  2.73E+01
   2  9 17  3  6    5.00E+02  5.00E+02  1.00E-01  2.50E+04  1.50E+06  2.46E+04
   2  9 17  3  1    5.00E+02  5.00E+02  1.00E-01  5.00E+01  6.00E+01  2.73E+01
   2  9 17  4  2    5.00E+02  5.00E+02  1.00E-01  5.00E+01  6.00E+01  2.73E+01
   1 10 17  3  1    5.00E+02  5.00E+02  1.00E-01  5.00E+01  6.00E+01  2.73E+01
   1 10 17  4  2    5.00E+02  5.00E+02  1.00E-01  5.00E+01  6.00E+01  2.73E+01
   1 10 17  3  4    5.00E+02  5.00E+02  1.00E-01  5.00E+01  6.00E+01  2.73E+01
   1  7 18  4  3    5.00E+02  5.00E+02  1.00E-01  5.00E+01  6.00E+01  2.73E+01
   2  7 18  4  3    5.00E+02  5.00E+02  1.00E-01  5.00E+01  6.00E+01  2.73E+01
   3  8 18  4  6    5.00E+02  5.00E+02  1.00E-01  2.50E+04  1.50E+06  2.46E+04
   3  9 18  4  6    5.00E+02  5.00E+02  1.00E-01  2.50E+04  1.50E+06  2.46E+04
   2 10 18  4  6    5.00E+02  5.00E+02  1.00E-01  2.50E+04  1.50E+06  2.46E+04
   2 10 18  4  4    5.00E+02  5.00E+02  1.00E-01  5.00E+01  6.00E+01  2.73E+01
   1 11 18  4  4    5.00E+02  5.00E+02  1.00E-01  5.00E+01  6.00E+01  2.73E+01
   1  7 19  4  3    5.00E+02  5.00E+02  1.00E-01  5.00E+01  6.00E+01  2.73E+01
   2  7 19  4  3    5.00E+02  5.00E+02  1.00E-01  5.00E+01  6.00E+01  2.73E+01
   3  8 19  4  6    5.00E+02  5.00E+02  1.00E-01  2.50E+04  1.50E+06  2.46E+04
   3  9 19  4  6    5.00E+02  5.00E+02  1.00E-01  2.50E+04  1.50E+06  2.46E+04
   2 10 19  4  6    5.00E+02  5.00E+02  1.00E-01  2.50E+04  1.50E+06  2.46E+04
   2 10 19  4  4    5.00E+02  5.00E+02  1.00E-01  5.00E+01  6.00E+01  2.73E+01
   1 11 19  4  4    5.00E+02  5.00E+02  1.00E-01  5.00E+01  6.00E+01  2.73E+01
   1  8 20  4  1    5.00E+02  1.00E+03  1.00E-01  5.00E+01  3.00E+01  1.88E+01
   2  8 20  4  1    5.00E+02  1.00E+03  1.00E-01  5.00E+01  3.00E+01  1.88E+01
   1  9 20  4  1    5.00E+02  1.00E+03  1.00E-01  5.00E+01  3.00E+01  1.88E+01
   2  9 20  4  1    5.00E+02  1.00E+03  1.00E-01  5.00E+01  3.00E+01  1.88E+01
   1 10 20  4  1    5.00E+02  1.00E+03  1.00E-01  5.00E+01  3.00E+01  1.88E+01


     NOTE: INFORMATION ABOUT CALCULATED LAKE/AQUIFER CONDUCTANCES WHEN USING BCF PACKAGE FOLLOWS: 

 IF WETDRY FLAG NOT TURNED ON, VERTICAL LEAKANCES ARE NOT SAVED:
 THEREFORE, LAKE/AQUIFER CONDUCTANCES ARE BASED SOLELY ON LAKEBED SPECIFICATION




 
 SOLVING FOR HEAD 

     8 ITERATIONS FOR TIME STEP   1 IN STRESS PERIOD    2

 HEAD/DRAWDOWN PRINTOUT FLAG = 1     TOTAL BUDGET PRINTOUT FLAG = 1
 CELL-BY-CELL FLOW TERM FLAG = 1

 OUTPUT FLAGS FOR EACH LAYER:
          HEAD    DRAWDOWN  HEAD  DRAWDOWN
 LAYER  PRINTOUT  PRINTOUT  SAVE    SAVE
 -----------------------------------------
    1       0         0       0       0
    2       0         0       0       0
    3       0         0       0       0
    4       0         0       0       0
    5       1         0       0       0

 --------------------------------------------------------------------------------
 TIME STEP   1     NUMBER OF CONNECTED LAKES IS  2     TOTAL AREA =  0.250000000D+07

 READJUST STAGE OF LAKE   4 TO LAKE   4 SILL ELEVATION BY  0.00 TO  108.00


           SURFACE       SILL   WATER BUDGET  STAGE  CORRECTED   LAKE VOLUME
  LAKE       AREA      ELEVATION   STAGE   CORRECTION  STAGE     CORRECTION
 --------------------------------------------------------------------------------

   3     0.10000E+07 -99999.00    102.83      0.00    102.83     3692.3    
   4     0.15000E+07    108.00    108.00      0.00    108.00    -3692.3    

     SECTIONS OF THE LAKE BOTTOM HAVE BECOME DRY.  THE DRYSECTIONS
     LIE ABOVE THE FOLLOWING 30 AQUIFER CELLS (LAYER,ROW,COLUMN):
     (  2,  7,  5)  (  2,  8,  5)  (  2,  9,  5)  (  2, 10,  5)  (  2, 11,  5)
     (  2,  7,  6)  (  2, 11,  6)  (  2,  7,  7)  (  2,  8,  7)  (  2, 10,  7)
     (  2, 11,  7)  (  2,  9,  8)  (  2,  7,  9)  (  2,  8,  9)  (  2, 10,  9)
     (  2, 11,  9)  (  2,  7, 10)  (  2, 11, 10)  (  2,  7, 11)  (  2, 11, 11)
     (  2,  7, 12)  (  2, 11, 12)  (  2,  7, 13)  (  2,  8, 13)  (  2, 10, 13)
     (  2, 11, 13)  (  2,  9, 14)  (  2, 10, 15)  (  2, 10, 16)  (  2,  9, 17)

 PERIOD     2     TIME STEP     1     TIME STEP LENGTH  3.5462E+00
 PERIOD TIME  3.5462E+00     TOTAL SIMULATION TIME  4.0355E+02


                 HYDROLOGIC BUDGET SUMMARIES FOR SIMULATED LAKES
     (ALL FLUID FLUXES ARE VOLUMES ADDED TO THE LAKE DURING PRESENT TIME STEP)
     -------------------------------------------------------------------------
 LAKE    STAGE         VOLUME     VOL.CHANGE      PRECIP     EVAPORATION        RUNOFF
   1    99.5600     7.0398E+06    7.4234E+04    1.1312E+05    1.0045E+05    0.0000E+00
   2   106.1430     9.1430E+06    3.1837E+05    4.1136E+04    3.6526E+04    0.0000E+00
   3   102.8307     5.8306E+06    6.3704E+04    4.1136E+04    3.6526E+04    0.0000E+00
   4   108.0000     1.1500E+07    2.1792E+05    6.1704E+04    5.4789E+04    0.0000E+00

            GROUND WATER            SURFACE WATER        WATER
 LAKE    INFLOW     OUTFLOW      INFLOW     OUTFLOW       USE
   1  6.1556E+04  0.0000E+00  0.0000E+00  0.0000E+00  0.0000E+00
   2  3.5951E+05  4.5751E+04  0.0000E+00  0.0000E+00  0.0000E+00
   3  6.2751E+04  7.3497E+03  0.0000E+00  0.0000E+00  0.0000E+00
   4  2.2744E+05  1.2745E+04  0.0000E+00  0.0000E+00  0.0000E+00

      CONNECTED LAKE   TIME-STEP         STAGE-CHANGE          PERCENT
 LAKE    INFLUX      SURFACE AREA   TIME STEP  CUMULATIVE    DISCREPANCY
   1   0.0000E+00     2.7500E+06   2.6994E-02 -1.5440E+01       0.000
   2   0.0000E+00     1.0000E+06   3.1837E-01 -8.8570E+00       0.000
   3   3.6923E+03     1.0000E+06   6.3704E-02 -1.2169E+01       0.000
   4  -3.6923E+03     1.5000E+06   1.4528E-01 -7.0000E+00       0.000
 --------------------------------------------------------------------------------



            CUMULATIVE HYDROLOGIC BUDGET SUMMARIES FOR SIMULATED LAKES
     (ALL FLUID FLUXES ARE SUMS OF VOLUMES ADDED TO THE LAKE SINCE INITIAL TIME)
     ---------------------------------------------------------------------------
 LAKE       PRECIP       EVAP       RUNOFF
   1     1.1312E+05  8.4094E+07  0.0000E+00
   2     4.1136E+04  5.6553E+07  0.0000E+00
   3     4.1136E+04  2.5136E+07  0.0000E+00
   4     6.1704E+04  2.4775E+07  0.0000E+00

            GROUND WATER            SURFACE WATER
 LAKE    INFLOW     OUTFLOW      INFLOW     OUTFLOW
   1  8.9183E+06  1.4874E+06  0.0000E+00  0.0000E+00
   2  2.7609E+07  1.6745E+06  0.0000E+00  0.0000E+00
   3  4.6320E+06  7.0033E+05  0.0000E+00  0.0000E+00
   4  1.9451E+07  4.2388E+05  0.0000E+00  0.0000E+00

         WATER    CONNECTED LAKE   CHANGE       PERCENT
 LAKE     USE         INFLUX       IN VOL.    DISCREPANCY
   1   0.0000E+00   2.0903E+06  -7.4459E+07      0.000
   2   0.0000E+00  -2.7924E+05  -3.0857E+07      0.000
   3   0.0000E+00   2.9943E+06  -1.8169E+07      0.000
   4   0.0000E+00  -4.8141E+06  -1.0500E+07      0.000
 --------------------------------------------------------------------------------


   1 CONNECTED LAKE SET

   2 LAKES:    3  4
1
              HEAD IN LAYER   5 AT END OF TIME STEP   1 IN STRESS PERIOD    2
  ---------------------------------------------------------------------------

          1      2      3      4      5      6      7      8      9     10
 .........................................................................
   1   160.0  158.9  157.3  155.8  154.6  153.9  153.1  152.3  151.5  150.8
   2   160.0  154.7  150.7  148.1  146.6  145.6  144.6  143.7  142.9  142.1
   3   160.0  152.4  146.3  142.3  139.9  138.5  137.1  136.0  135.0  134.2
   4   160.0  151.4  143.8  137.6  133.8  131.7  129.9  128.4  127.3  126.5
   5   160.0  150.8  141.7  133.0  127.8  124.9  122.7  121.1  119.9  119.1
   6   160.0  150.3  139.6  128.1  120.1  116.6  114.3  112.9  111.6  110.7
   7   160.0  150.0  138.4  123.8  108.5  106.2  104.7  105.2  102.3  101.3
   8   160.0  149.9  137.9  122.4  107.8  106.1  103.2  102.6   99.9   99.6
   9   160.0  149.9  137.7  122.0  107.8  106.2  105.8  101.4   99.6   99.6
  10   160.0  149.9  137.9  122.4  107.8  106.1  103.2  102.6   99.9   99.6
  11   160.0  150.0  138.4  123.8  108.5  106.2  104.7  105.2  102.3  101.3
  12   160.0  150.3  139.6  128.1  120.1  116.6  114.3  112.9  111.6  110.7
  13   160.0  150.8  141.7  133.0  127.8  124.9  122.7  121.1  119.9  119.1
  14   160.0  151.4  143.8  137.6  133.8  131.7  129.9  128.4  127.3  126.5
  15   160.0  152.4  146.3  142.3  139.9  138.5  137.1  136.0  135.0  134.2
  16   160.0  154.7  150.7  148.1  146.6  145.6  144.6  143.7  142.9  142.1
  17   160.0  158.9  157.3  155.8  154.6  153.9  153.1  152.3  151.5  150.8
1
              HEAD IN LAYER   5 AT END OF TIME STEP   1 IN STRESS PERIOD    2
  ---------------------------------------------------------------------------

         11     12     13     14     15     16     17     18     19     20
 .........................................................................
   1   150.0  149.2  148.5  147.7  146.9  146.1  145.4  144.6  143.9  142.7
   2   141.3  140.5  139.8  139.1  138.4  137.8  137.1  136.5  136.0  135.4
   3   133.5  132.9  132.4  131.9  131.6  131.3  131.0  130.8  130.8  131.0
   4   125.9  125.5  125.2  125.1  125.2  125.5  125.9  126.5  127.4  128.9
   5   118.6  118.4  118.5  118.8  119.4  120.1  121.1  122.5  124.1  127.1
   6   110.4  110.5  111.1  112.2  113.3  114.5  116.0  117.9  120.2  124.7
   7   101.1  101.3  102.4  105.9  107.5  108.7  110.7  112.6  115.0  122.3
   8    99.6   99.6   99.9  102.6  103.0  103.1  106.5  108.1  108.5  120.5
   9    99.6   99.6   99.6  100.7  102.8  102.9  104.3  107.9  108.3  120.1
  10    99.6   99.6   99.8  102.3  102.5  103.6  106.6  108.2  108.7  120.6
  11   101.0  101.2  102.3  105.7  107.2  108.7  110.7  112.6  115.1  122.3
  12   110.4  110.5  111.0  112.1  113.3  114.5  116.0  117.8  120.2  124.7
  13   118.6  118.4  118.5  118.8  119.4  120.1  121.1  122.5  124.1  127.1
  14   125.9  125.5  125.2  125.1  125.2  125.5  125.9  126.5  127.4  128.9
  15   133.5  132.9  132.4  131.9  131.6  131.3  131.0  130.8  130.8  131.0
  16   141.3  140.5  139.8  139.1  138.4  137.8  137.1  136.5  136.0  135.4
  17   150.0  149.2  148.5  147.7  146.9  146.1  145.4  144.6  143.9  142.7
1
              HEAD IN LAYER   5 AT END OF TIME STEP   1 IN STRESS PERIOD    2
  ---------------------------------------------------------------------------

         21     22
 .................
   1   141.1  140.0
   2   136.1  140.0
   3   133.7  140.0
   4   132.8  140.0
   5   132.2  140.0
   6   131.7  140.0
   7   131.2  140.0
   8   131.0  140.0
   9   130.9  140.0
  10   131.0  140.0
  11   131.2  140.0
  12   131.7  140.0
  13   132.2  140.0
  14   132.8  140.0
  15   133.7  140.0
  16   136.1  140.0
  17   141.1  140.0
1
  VOLUMETRIC BUDGET FOR ENTIRE MODEL AT END OF TIME STEP  1 IN STRESS PERIOD   2
  ------------------------------------------------------------------------------

     CUMULATIVE VOLUMES      L**3       RATES FOR THIS TIME STEP      L**3/T
     ------------------                 ------------------------

           IN:                                      IN:
           ---                                      ---
             STORAGE =    20820468.0000               STORAGE =           0.0000
       CONSTANT HEAD =   790237952.0000         CONSTANT HEAD =     1412513.8750
                  ET =           0.0000                    ET =           0.0000
            RECHARGE =     6170389.5000              RECHARGE =     1740000.0000
     SPECIFIED FLOWS =           0.0000       SPECIFIED FLOWS =           0.0000
       LAKE  SEEPAGE =     4286149.5000         LAKE  SEEPAGE =       18568.0352

            TOTAL IN =   821514944.0000              TOTAL IN =     3171082.0000

          OUT:                                     OUT:
          ----                                     ----
             STORAGE =   484691296.0000               STORAGE =     2550053.5000
       CONSTANT HEAD =           0.0000         CONSTANT HEAD =           0.0000
                  ET =   276223648.0000                    ET =      420403.8125
            RECHARGE =           0.0000              RECHARGE =           0.0000
     SPECIFIED FLOWS =           0.0000       SPECIFIED FLOWS =           0.0000
       LAKE  SEEPAGE =    60610848.0000         LAKE  SEEPAGE =      200569.4531

           TOTAL OUT =   821525760.0000             TOTAL OUT =     3171026.7500

            IN - OUT =      -10816.0000              IN - OUT =          55.2500

 PERCENT DISCREPANCY =           0.00     PERCENT DISCREPANCY =           0.00






          TIME SUMMARY AT END OF TIME STEP   1 IN STRESS PERIOD    2
                    SECONDS     MINUTES      HOURS       DAYS        YEARS
                    -----------------------------------------------------------
   TIME STEP LENGTH 3.06392E+05  5106.5      85.109      3.5462     9.70897E-03
 STRESS PERIOD TIME 3.06392E+05  5106.5      85.109      3.5462     9.70897E-03
         TOTAL TIME 3.48664E+07 5.81107E+05  9685.1      403.55      1.1048    
1
 
 SOLVING FOR HEAD 
     8 ITERATIONS FOR TIME STEP   2 IN STRESS PERIOD    2

 HEAD/DRAWDOWN PRINTOUT FLAG = 1     TOTAL BUDGET PRINTOUT FLAG = 1
 CELL-BY-CELL FLOW TERM FLAG = 1

 OUTPUT FLAGS FOR EACH LAYER:
          HEAD    DRAWDOWN  HEAD  DRAWDOWN
 LAYER  PRINTOUT  PRINTOUT  SAVE    SAVE
 -----------------------------------------
    1       0         0       0       0
    2       0         0       0       0
    3       0         0       0       0
    4       0         0       0       0
    5       1         0       0       0

 --------------------------------------------------------------------------------
 TIME STEP   2     NUMBER OF CONNECTED LAKES IS  2     TOTAL AREA =  0.250000000D+07

 READJUST STAGE OF LAKE   4 TO LAKE   4 SILL ELEVATION BY -0.16 TO  108.00


           SURFACE       SILL   WATER BUDGET  STAGE  CORRECTED   LAKE VOLUME
  LAKE       AREA      ELEVATION   STAGE   CORRECTION  STAGE     CORRECTION
 --------------------------------------------------------------------------------

   3     0.10000E+07 -99999.00    102.90      0.23    103.13    0.23260E+06
   4     0.15000E+07    108.00    108.16     -0.16    108.00   -0.23260E+06

     SECTIONS OF THE LAKE BOTTOM HAVE BECOME DRY.  THE DRYSECTIONS
     LIE ABOVE THE FOLLOWING 30 AQUIFER CELLS (LAYER,ROW,COLUMN):
     (  2,  7,  5)  (  2,  8,  5)  (  2,  9,  5)  (  2, 10,  5)  (  2, 11,  5)
     (  2,  7,  6)  (  2, 11,  6)  (  2,  7,  7)  (  2,  8,  7)  (  2, 10,  7)
     (  2, 11,  7)  (  2,  9,  8)  (  2,  7,  9)  (  2,  8,  9)  (  2, 10,  9)
     (  2, 11,  9)  (  2,  7, 10)  (  2, 11, 10)  (  2,  7, 11)  (  2, 11, 11)
     (  2,  7, 12)  (  2, 11, 12)  (  2,  7, 13)  (  2,  8, 13)  (  2, 10, 13)
     (  2, 11, 13)  (  2,  9, 14)  (  2, 10, 15)  (  2, 10, 16)  (  2,  9, 17)

 PERIOD     2     TIME STEP     2     TIME STEP LENGTH  3.6526E+00
 PERIOD TIME  7.1988E+00     TOTAL SIMULATION TIME  4.0720E+02


                 HYDROLOGIC BUDGET SUMMARIES FOR SIMULATED LAKES
     (ALL FLUID FLUXES ARE VOLUMES ADDED TO THE LAKE DURING PRESENT TIME STEP)
     -------------------------------------------------------------------------
 LAKE    STAGE         VOLUME     VOL.CHANGE      PRECIP     EVAPORATION        RUNOFF
   1    99.5950     7.1361E+06    9.6264E+04    1.1652E+05    1.0346E+05    0.0000E+00
   2   106.4876     9.4875E+06    3.4451E+05    4.2370E+04    3.7622E+04    0.0000E+00
   3   103.1318     6.1317E+06    3.0110E+05    4.2370E+04    3.7622E+04    0.0000E+00
   4   108.0000     1.1500E+07    0.0000E+00    6.3555E+04    5.6432E+04    0.0000E+00

            GROUND WATER            SURFACE WATER        WATER
 LAKE    INFLOW     OUTFLOW      INFLOW     OUTFLOW       USE
   1  8.3207E+04  0.0000E+00  0.0000E+00  0.0000E+00  0.0000E+00
   2  3.8650E+05  4.6741E+04  0.0000E+00  0.0000E+00  0.0000E+00
   3  6.9296E+04  5.5459E+03  0.0000E+00  0.0000E+00  0.0000E+00
   4  2.3769E+05  1.2215E+04  0.0000E+00  0.0000E+00  0.0000E+00

      CONNECTED LAKE   TIME-STEP         STAGE-CHANGE          PERCENT
 LAKE    INFLUX      SURFACE AREA   TIME STEP  CUMULATIVE    DISCREPANCY
   1   0.0000E+00     2.7500E+06   3.5005E-02 -1.5405E+01       0.000
   2   0.0000E+00     1.0000E+06   3.4451E-01 -8.5124E+00       0.000
   3   2.3260E+05     1.0000E+06   3.0110E-01 -1.1868E+01       0.000
   4  -2.3260E+05     1.5000E+06   0.0000E+00 -7.0000E+00       0.000
 --------------------------------------------------------------------------------



            CUMULATIVE HYDROLOGIC BUDGET SUMMARIES FOR SIMULATED LAKES
     (ALL FLUID FLUXES ARE SUMS OF VOLUMES ADDED TO THE LAKE SINCE INITIAL TIME)
     ---------------------------------------------------------------------------
 LAKE       PRECIP       EVAP       RUNOFF
   1     2.2964E+05  8.4197E+07  0.0000E+00
   2     8.3506E+04  5.6591E+07  0.0000E+00
   3     8.3506E+04  2.5174E+07  0.0000E+00
   4     1.2526E+05  2.4831E+07  0.0000E+00

            GROUND WATER            SURFACE WATER
 LAKE    INFLOW     OUTFLOW      INFLOW     OUTFLOW
   1  9.0015E+06  1.4874E+06  0.0000E+00  0.0000E+00
   2  2.7996E+07  1.7213E+06  0.0000E+00  0.0000E+00
   3  4.7013E+06  7.0588E+05  0.0000E+00  0.0000E+00
   4  1.9689E+07  4.3609E+05  0.0000E+00  0.0000E+00

         WATER    CONNECTED LAKE   CHANGE       PERCENT
 LAKE     USE         INFLUX       IN VOL.    DISCREPANCY
   1   0.0000E+00   2.0903E+06  -7.4363E+07      0.000
   2   0.0000E+00  -2.7924E+05  -3.0512E+07      0.000
   3   0.0000E+00   3.2269E+06  -1.7868E+07      0.000
   4   0.0000E+00  -5.0467E+06  -1.0500E+07      0.000
 --------------------------------------------------------------------------------


   1 CONNECTED LAKE SET

   2 LAKES:    3  4
1
              HEAD IN LAYER   5 AT END OF TIME STEP   2 IN STRESS PERIOD    2
  ---------------------------------------------------------------------------

          1      2      3      4      5      6      7      8      9     10
 .........................................................................
   1   160.0  158.9  157.3  155.8  154.6  153.9  153.1  152.3  151.5  150.8
   2   160.0  155.1  151.1  148.5  146.9  145.9  145.0  144.1  143.2  142.4
   3   160.0  152.8  146.6  142.6  140.2  138.7  137.4  136.3  135.3  134.5
   4   160.0  151.8  144.1  137.9  134.1  132.0  130.2  128.7  127.6  126.8
   5   160.0  151.2  142.0  133.3  128.1  125.2  123.0  121.4  120.2  119.4
   6   160.0  150.6  139.9  128.4  120.4  116.8  114.6  113.1  111.8  110.9
   7   160.0  150.4  138.6  124.1  108.5  106.7  105.2  105.4  102.7  101.7
   8   160.0  150.3  138.1  122.7  107.9  106.4  103.7  102.8  100.3   99.7
   9   160.0  150.2  138.0  122.3  107.8  106.5  106.1  101.7   99.7   99.6
  10   160.0  150.3  138.1  122.7  107.9  106.4  103.7  102.8  100.3   99.7
  11   160.0  150.4  138.6  124.1  108.5  106.7  105.2  105.4  102.7  101.7
  12   160.0  150.6  139.9  128.4  120.4  116.8  114.6  113.1  111.8  110.9
  13   160.0  151.2  142.0  133.3  128.1  125.2  123.0  121.4  120.2  119.4
  14   160.0  151.8  144.1  137.9  134.1  132.0  130.2  128.7  127.6  126.8
  15   160.0  152.8  146.6  142.6  140.2  138.7  137.4  136.3  135.3  134.5
  16   160.0  155.1  151.1  148.5  146.9  145.9  145.0  144.1  143.2  142.4
  17   160.0  158.9  157.3  155.8  154.6  153.9  153.1  152.3  151.5  150.8
1
              HEAD IN LAYER   5 AT END OF TIME STEP   2 IN STRESS PERIOD    2
  ---------------------------------------------------------------------------

         11     12     13     14     15     16     17     18     19     20
 .........................................................................
   1   150.0  149.2  148.5  147.7  146.9  146.1  145.4  144.6  143.9  142.7
   2   141.7  140.9  140.2  139.5  138.8  138.1  137.5  136.9  136.3  135.8
   3   133.8  133.1  132.6  132.2  131.9  131.6  131.3  131.1  131.0  131.3
   4   126.2  125.7  125.5  125.4  125.5  125.7  126.2  126.8  127.6  129.2
   5   118.9  118.7  118.8  119.1  119.6  120.4  121.4  122.7  124.4  127.3
   6   110.6  110.7  111.3  112.4  113.5  114.7  116.2  118.1  120.5  125.0
   7   101.5  101.7  102.8  106.0  107.6  108.9  110.9  112.8  115.3  122.5
   8    99.7   99.7  100.3  102.8  103.1  103.2  106.7  108.3  108.7  120.8
   9    99.6   99.6   99.7  101.0  102.8  103.0  104.7  108.1  108.5  120.3
  10    99.7   99.7  100.2  102.5  102.9  104.0  106.8  108.3  108.8  120.8
  11   101.5  101.7  102.7  105.9  107.4  108.9  110.9  112.8  115.3  122.5
  12   110.6  110.7  111.2  112.3  113.5  114.7  116.2  118.1  120.5  125.0
  13   118.9  118.7  118.8  119.1  119.6  120.4  121.4  122.7  124.4  127.3
  14   126.2  125.7  125.5  125.4  125.5  125.7  126.2  126.8  127.6  129.2
  15   133.8  133.1  132.6  132.2  131.9  131.6  131.3  131.1  131.0  131.3
  16   141.7  140.9  140.2  139.5  138.8  138.1  137.5  136.9  136.3  135.8
  17   150.0  149.2  148.5  147.7  146.9  146.1  145.4  144.6  143.9  142.7
1
              HEAD IN LAYER   5 AT END OF TIME STEP   2 IN STRESS PERIOD    2
  ---------------------------------------------------------------------------

         21     22
 .................
   1   141.1  140.0
   2   136.5  140.0
   3   134.0  140.0
   4   133.1  140.0
   5   132.6  140.0
   6   132.0  140.0
   7   131.5  140.0
   8   131.3  140.0
   9   131.2  140.0
  10   131.3  140.0
  11   131.5  140.0
  12   132.0  140.0
  13   132.6  140.0
  14   133.1  140.0
  15   134.0  140.0
  16   136.5  140.0
  17   141.1  140.0
1
  VOLUMETRIC BUDGET FOR ENTIRE MODEL AT END OF TIME STEP  2 IN STRESS PERIOD   2
  ------------------------------------------------------------------------------

     CUMULATIVE VOLUMES      L**3       RATES FOR THIS TIME STEP      L**3/T
     ------------------                 ------------------------

           IN:                                      IN:
           ---                                      ---
             STORAGE =    20820468.0000               STORAGE =           0.0000
       CONSTANT HEAD =   795169472.0000         CONSTANT HEAD =     1350150.5000
                  ET =           0.0000                    ET =           0.0000
            RECHARGE =    12525890.0000              RECHARGE =     1740000.0000
     SPECIFIED FLOWS =           0.0000       SPECIFIED FLOWS =           0.0000
       LAKE  SEEPAGE =     4350651.0000         LAKE  SEEPAGE =       17659.1250

            TOTAL IN =   832866496.0000              TOTAL IN =     3107809.5000

          OUT:                                     OUT:
          ----                                     ----
             STORAGE =   493649536.0000               STORAGE =     2452572.7500
       CONSTANT HEAD =           0.0000         CONSTANT HEAD =           0.0000
                  ET =   277840032.0000                    ET =      442532.7812
            RECHARGE =           0.0000              RECHARGE =           0.0000
     SPECIFIED FLOWS =           0.0000       SPECIFIED FLOWS =           0.0000
       LAKE  SEEPAGE =    61387540.0000         LAKE  SEEPAGE =      212641.7812

           TOTAL OUT =   832877120.0000             TOTAL OUT =     3107747.2500

            IN - OUT =      -10624.0000              IN - OUT =          62.2500

 PERCENT DISCREPANCY =           0.00     PERCENT DISCREPANCY =           0.00






          TIME SUMMARY AT END OF TIME STEP   2 IN STRESS PERIOD    2
                    SECONDS     MINUTES      HOURS       DAYS        YEARS
                    -----------------------------------------------------------
   TIME STEP LENGTH 3.15584E+05  5259.7      87.662      3.6526     1.00002E-02
 STRESS PERIOD TIME 6.21975E+05  10366.      172.77      7.1988     1.97092E-02
         TOTAL TIME 3.51820E+07 5.86366E+05  9772.8      407.20      1.1148    
1
 
 SOLVING FOR HEAD 

 CELL CONVERSIONS FOR ITER.=  4  LAYER=  1  STEP=  3  PERIOD=  2   (ROW,COL)
    WET( 10, 17)   
    10 ITERATIONS FOR TIME STEP   3 IN STRESS PERIOD    2

 HEAD/DRAWDOWN PRINTOUT FLAG = 1     TOTAL BUDGET PRINTOUT FLAG = 1
 CELL-BY-CELL FLOW TERM FLAG = 1

 OUTPUT FLAGS FOR EACH LAYER:
          HEAD    DRAWDOWN  HEAD  DRAWDOWN
 LAYER  PRINTOUT  PRINTOUT  SAVE    SAVE
 -----------------------------------------
    1       0         0       0       0
    2       0         0       0       0
    3       0         0       0       0
    4       0         0       0       0
    5       1         0       0       0

 --------------------------------------------------------------------------------
 TIME STEP   3     NUMBER OF CONNECTED LAKES IS  2     TOTAL AREA =  0.250000000D+07

 READJUST STAGE OF LAKE   4 TO LAKE   4 SILL ELEVATION BY -0.17 TO  108.00


           SURFACE       SILL   WATER BUDGET  STAGE  CORRECTED   LAKE VOLUME
  LAKE       AREA      ELEVATION   STAGE   CORRECTION  STAGE     CORRECTION
 --------------------------------------------------------------------------------

   3     0.10000E+07 -99999.00    103.20      0.25    103.45    0.25014E+06
   4     0.15000E+07    108.00    108.17     -0.17    108.00   -0.25014E+06

     SECTIONS OF THE LAKE BOTTOM HAVE BECOME DRY.  THE DRYSECTIONS
     LIE ABOVE THE FOLLOWING 30 AQUIFER CELLS (LAYER,ROW,COLUMN):
     (  2,  7,  5)  (  2,  8,  5)  (  2,  9,  5)  (  2, 10,  5)  (  2, 11,  5)
     (  2,  7,  6)  (  2, 11,  6)  (  2,  7,  7)  (  2,  8,  7)  (  2, 10,  7)
     (  2, 11,  7)  (  2,  9,  8)  (  2,  7,  9)  (  2,  8,  9)  (  2, 10,  9)
     (  2, 11,  9)  (  2,  7, 10)  (  2, 11, 10)  (  2,  7, 11)  (  2, 11, 11)
     (  2,  7, 12)  (  2, 11, 12)  (  2,  7, 13)  (  2,  8, 13)  (  2, 10, 13)
     (  2, 11, 13)  (  2,  9, 14)  (  2, 10, 15)  (  2, 10, 16)  (  2,  9, 17)

 PERIOD     2     TIME STEP     3     TIME STEP LENGTH  3.7622E+00
 PERIOD TIME  1.0961E+01     TOTAL SIMULATION TIME  4.1096E+02


                 HYDROLOGIC BUDGET SUMMARIES FOR SIMULATED LAKES
     (ALL FLUID FLUXES ARE VOLUMES ADDED TO THE LAKE DURING PRESENT TIME STEP)
     -------------------------------------------------------------------------
 LAKE    STAGE         VOLUME     VOL.CHANGE      PRECIP     EVAPORATION        RUNOFF
   1    99.6379     7.2542E+06    1.1813E+05    1.2001E+05    1.0656E+05    0.0000E+00
   2   106.8765     9.8765E+06    3.8899E+05    4.3641E+04    3.8750E+04    0.0000E+00
   3   103.4519     6.4519E+06    3.2015E+05    4.3641E+04    3.8750E+04    0.0000E+00
   4   108.0000     1.1500E+07    0.0000E+00    6.5462E+04    5.8125E+04    0.0000E+00

            GROUND WATER            SURFACE WATER        WATER
 LAKE    INFLOW     OUTFLOW      INFLOW     OUTFLOW       USE
   1  1.0468E+05  0.0000E+00  0.0000E+00  0.0000E+00  0.0000E+00
   2  4.3359E+05  4.9494E+04  0.0000E+00  0.0000E+00  0.0000E+00
   3  7.0761E+04  5.6464E+03  0.0000E+00  0.0000E+00  0.0000E+00
   4  2.5381E+05  1.0999E+04  0.0000E+00  0.0000E+00  0.0000E+00

      CONNECTED LAKE   TIME-STEP         STAGE-CHANGE          PERCENT
 LAKE    INFLUX      SURFACE AREA   TIME STEP  CUMULATIVE    DISCREPANCY
   1   0.0000E+00     2.7500E+06   4.2957E-02 -1.5362E+01       0.000
   2   0.0000E+00     1.0000E+06   3.8899E-01 -8.1235E+00       0.000
   3   2.5014E+05     1.0000E+06   3.2015E-01 -1.1548E+01       0.000
   4  -2.5014E+05     1.5000E+06   0.0000E+00 -7.0000E+00       0.000
 --------------------------------------------------------------------------------



            CUMULATIVE HYDROLOGIC BUDGET SUMMARIES FOR SIMULATED LAKES
     (ALL FLUID FLUXES ARE SUMS OF VOLUMES ADDED TO THE LAKE SINCE INITIAL TIME)
     ---------------------------------------------------------------------------
 LAKE       PRECIP       EVAP       RUNOFF
   1     3.4965E+05  8.4304E+07  0.0000E+00
   2     1.2715E+05  5.6630E+07  0.0000E+00
   3     1.2715E+05  2.5213E+07  0.0000E+00
   4     1.9072E+05  2.4889E+07  0.0000E+00

            GROUND WATER            SURFACE WATER
 LAKE    INFLOW     OUTFLOW      INFLOW     OUTFLOW
   1  9.1062E+06  1.4874E+06  0.0000E+00  0.0000E+00
   2  2.8430E+07  1.7708E+06  0.0000E+00  0.0000E+00
   3  4.7720E+06  7.1153E+05  0.0000E+00  0.0000E+00
   4  1.9943E+07  4.4709E+05  0.0000E+00  0.0000E+00

         WATER    CONNECTED LAKE   CHANGE       PERCENT
 LAKE     USE         INFLUX       IN VOL.    DISCREPANCY
   1   0.0000E+00   2.0903E+06  -7.4245E+07      0.000
   2   0.0000E+00  -2.7924E+05  -3.0123E+07      0.000
   3   0.0000E+00   3.4771E+06  -1.7548E+07      0.000
   4   0.0000E+00  -5.2968E+06  -1.0500E+07      0.000
 --------------------------------------------------------------------------------


   1 CONNECTED LAKE SET

   2 LAKES:    3  4
1
              HEAD IN LAYER   5 AT END OF TIME STEP   3 IN STRESS PERIOD    2
  ---------------------------------------------------------------------------

          1      2      3      4      5      6      7      8      9     10
 .........................................................................
   1   160.0  158.9  157.3  155.8  154.6  153.9  153.1  152.3  151.5  150.8
   2   160.0  155.4  151.5  148.9  147.3  146.3  145.3  144.4  143.6  142.8
   3   160.0  153.1  146.9  142.9  140.5  139.0  137.7  136.6  135.6  134.7
   4   160.0  152.1  144.4  138.2  134.4  132.3  130.5  129.0  127.9  127.1
   5   160.0  151.5  142.3  133.6  128.4  125.5  123.3  121.7  120.5  119.6
   6   160.0  151.0  140.2  128.7  120.6  117.1  114.8  113.4  112.0  111.2
   7   160.0  150.7  138.9  124.3  108.6  107.2  105.7  105.7  103.2  102.1
   8   160.0  150.6  138.4  122.9  107.9  106.8  104.1  103.1  100.6   99.8
   9   160.0  150.5  138.2  122.5  107.8  106.9  106.5  102.1   99.8   99.7
  10   160.0  150.6  138.4  122.9  107.9  106.8  104.1  103.1  100.6   99.8
  11   160.0  150.7  138.9  124.3  108.6  107.2  105.7  105.7  103.2  102.1
  12   160.0  151.0  140.2  128.7  120.6  117.1  114.8  113.4  112.0  111.1
  13   160.0  151.5  142.3  133.6  128.4  125.5  123.3  121.7  120.5  119.6
  14   160.0  152.1  144.4  138.2  134.4  132.3  130.5  129.0  127.9  127.1
  15   160.0  153.1  146.9  142.9  140.5  139.0  137.7  136.6  135.6  134.7
  16   160.0  155.4  151.5  148.9  147.3  146.3  145.3  144.4  143.6  142.8
  17   160.0  158.9  157.3  155.8  154.6  153.9  153.1  152.3  151.5  150.8
1
              HEAD IN LAYER   5 AT END OF TIME STEP   3 IN STRESS PERIOD    2
  ---------------------------------------------------------------------------

         11     12     13     14     15     16     17     18     19     20
 .........................................................................
   1   150.0  149.2  148.5  147.7  146.9  146.1  145.4  144.6  143.9  142.7
   2   142.0  141.2  140.5  139.8  139.1  138.5  137.8  137.2  136.7  136.1
   3   134.0  133.4  132.9  132.5  132.1  131.8  131.6  131.4  131.3  131.6
   4   126.4  126.0  125.8  125.7  125.8  126.0  126.4  127.1  127.9  129.5
   5   119.1  118.9  119.0  119.3  119.9  120.6  121.7  123.0  124.6  127.6
   6   110.8  110.9  111.5  112.6  113.7  115.0  116.5  118.3  120.7  125.2
   7   101.8  102.1  103.2  106.3  107.8  109.1  111.1  113.0  115.5  122.7
   8    99.7   99.8  100.6  103.0  103.4  103.5  106.9  108.3  108.7  121.0
   9    99.6   99.6   99.7  101.3  103.1  103.3  105.1  108.1  108.5  120.5
  10    99.7   99.7  100.5  102.8  103.3  104.4  107.1  108.4  108.9  121.0
  11   101.8  102.1  103.1  106.1  107.6  109.2  111.1  113.0  115.5  122.7
  12   110.8  110.9  111.4  112.5  113.7  114.9  116.4  118.3  120.7  125.2
  13   119.1  118.9  119.0  119.3  119.9  120.6  121.6  123.0  124.6  127.6
  14   126.4  126.0  125.8  125.7  125.8  126.0  126.4  127.1  127.9  129.5
  15   134.0  133.4  132.9  132.5  132.1  131.8  131.6  131.4  131.3  131.6
  16   142.0  141.2  140.5  139.8  139.1  138.5  137.8  137.2  136.7  136.1
  17   150.0  149.2  148.5  147.7  146.9  146.1  145.4  144.6  143.9  142.7
1
              HEAD IN LAYER   5 AT END OF TIME STEP   3 IN STRESS PERIOD    2
  ---------------------------------------------------------------------------

         21     22
 .................
   1   141.1  140.0
   2   136.9  140.0
   3   134.4  140.0
   4   133.5  140.0
   5   132.9  140.0
   6   132.3  140.0
   7   131.8  140.0
   8   131.6  140.0
   9   131.5  140.0
  10   131.6  140.0
  11   131.8  140.0
  12   132.3  140.0
  13   132.9  140.0
  14   133.5  140.0
  15   134.4  140.0
  16   136.9  140.0
  17   141.1  140.0
1
  VOLUMETRIC BUDGET FOR ENTIRE MODEL AT END OF TIME STEP  3 IN STRESS PERIOD   2
  ------------------------------------------------------------------------------

     CUMULATIVE VOLUMES      L**3       RATES FOR THIS TIME STEP      L**3/T
     ------------------                 ------------------------

           IN:                                      IN:
           ---                                      ---
             STORAGE =    20820468.0000               STORAGE =           0.0000
       CONSTANT HEAD =   800027840.0000         CONSTANT HEAD =     1291375.8750
                  ET =           0.0000                    ET =           0.0000
            RECHARGE =    19072056.0000              RECHARGE =     1740000.0000
     SPECIFIED FLOWS =           0.0000       SPECIFIED FLOWS =           0.0000
       LAKE  SEEPAGE =     4416790.0000         LAKE  SEEPAGE =       17580.0996

            TOTAL IN =   844337152.0000              TOTAL IN =     3048956.0000

          OUT:                                     OUT:
          ----                                     ----
             STORAGE =   502512192.0000               STORAGE =     2355730.5000
       CONSTANT HEAD =           0.0000         CONSTANT HEAD =           0.0000
                  ET =   279585120.0000                    ET =      463856.0938
            RECHARGE =           0.0000              RECHARGE =           0.0000
     SPECIFIED FLOWS =           0.0000       SPECIFIED FLOWS =           0.0000
       LAKE  SEEPAGE =    62250376.0000         LAKE  SEEPAGE =      229345.6562

           TOTAL OUT =   844347712.0000             TOTAL OUT =     3048932.2500

            IN - OUT =      -10560.0000              IN - OUT =          23.7500

 PERCENT DISCREPANCY =           0.00     PERCENT DISCREPANCY =           0.00






          TIME SUMMARY AT END OF TIME STEP   3 IN STRESS PERIOD    2
                    SECONDS     MINUTES      HOURS       DAYS        YEARS
                    -----------------------------------------------------------
   TIME STEP LENGTH 3.25051E+05  5417.5      90.292      3.7622     1.03002E-02
 STRESS PERIOD TIME 9.47026E+05  15784.      263.06      10.961     3.00095E-02
         TOTAL TIME 3.55070E+07 5.91784E+05  9863.1      410.96      1.1251    
1
 
 SOLVING FOR HEAD 

 CELL CONVERSIONS FOR ITER.=  3  LAYER=  1  STEP=  4  PERIOD=  2   (ROW,COL)
    WET(  8, 17)   
    10 ITERATIONS FOR TIME STEP   4 IN STRESS PERIOD    2

 HEAD/DRAWDOWN PRINTOUT FLAG = 1     TOTAL BUDGET PRINTOUT FLAG = 1
 CELL-BY-CELL FLOW TERM FLAG = 1

 OUTPUT FLAGS FOR EACH LAYER:
          HEAD    DRAWDOWN  HEAD  DRAWDOWN
 LAYER  PRINTOUT  PRINTOUT  SAVE    SAVE
 -----------------------------------------
    1       0         0       0       0
    2       0         0       0       0
    3       0         0       0       0
    4       0         0       0       0
    5       1         0       0       0

 --------------------------------------------------------------------------------
 TIME STEP   4     NUMBER OF CONNECTED LAKES IS  2     TOTAL AREA =  0.250000000D+07

 READJUST STAGE OF LAKE   4 TO LAKE   4 SILL ELEVATION BY -0.18 TO  108.00


           SURFACE       SILL   WATER BUDGET  STAGE  CORRECTED   LAKE VOLUME
  LAKE       AREA      ELEVATION   STAGE   CORRECTION  STAGE     CORRECTION
 --------------------------------------------------------------------------------

   3     0.10000E+07 -99999.00    103.52      0.27    103.79    0.26818E+06
   4     0.15000E+07    108.00    108.18     -0.18    108.00   -0.26818E+06

     SECTIONS OF THE LAKE BOTTOM HAVE BECOME DRY.  THE DRYSECTIONS
     LIE ABOVE THE FOLLOWING 19 AQUIFER CELLS (LAYER,ROW,COLUMN):
     (  2,  9,  8)  (  2,  7,  9)  (  2,  8,  9)  (  2, 10,  9)  (  2, 11,  9)
     (  2,  7, 10)  (  2, 11, 10)  (  2,  7, 11)  (  2, 11, 11)  (  2,  7, 12)
     (  2, 11, 12)  (  2,  7, 13)  (  2,  8, 13)  (  2, 10, 13)  (  2, 11, 13)
     (  2,  9, 14)  (  2, 10, 15)  (  2, 10, 16)  (  2,  9, 17)  (

 PERIOD     2     TIME STEP     4     TIME STEP LENGTH  3.8750E+00
 PERIOD TIME  1.4836E+01     TOTAL SIMULATION TIME  4.1484E+02


                 HYDROLOGIC BUDGET SUMMARIES FOR SIMULATED LAKES
     (ALL FLUID FLUXES ARE VOLUMES ADDED TO THE LAKE DURING PRESENT TIME STEP)
     -------------------------------------------------------------------------
 LAKE    STAGE         VOLUME     VOL.CHANGE      PRECIP     EVAPORATION        RUNOFF
   1    99.6888     7.3941E+06    1.3987E+05    1.2361E+05    1.0976E+05    0.0000E+00
   2   107.0881     1.0330E+07    4.5344E+05    1.2276E+05    1.0900E+05    0.0000E+00
   3   103.7912     6.7911E+06    3.3925E+05    4.4950E+04    3.9913E+04    0.0000E+00
   4   108.0000     1.1500E+07    1.0000E+00    6.7426E+04    5.9869E+04    0.0000E+00

            GROUND WATER            SURFACE WATER        WATER
 LAKE    INFLOW     OUTFLOW      INFLOW     OUTFLOW       USE
   1  1.2602E+05  0.0000E+00  0.0000E+00  0.0000E+00  0.0000E+00
   2  5.0518E+05  6.5496E+04  0.0000E+00  0.0000E+00  0.0000E+00
   3  7.1969E+04  5.9377E+03  0.0000E+00  0.0000E+00  0.0000E+00
   4  2.7046E+05  9.8362E+03  0.0000E+00  0.0000E+00  0.0000E+00

      CONNECTED LAKE   TIME-STEP         STAGE-CHANGE          PERCENT
 LAKE    INFLUX      SURFACE AREA   TIME STEP  CUMULATIVE    DISCREPANCY
   1   0.0000E+00     2.7500E+06   5.0862E-02 -1.5311E+01       0.000
   2   0.0000E+00     2.7309E+06   2.1150E-01 -7.9119E+00       0.000
   3   2.6818E+05     1.0000E+06   3.3925E-01 -1.1209E+01       0.000
   4  -2.6818E+05     1.5000E+06   0.0000E+00 -7.0000E+00       0.000
 --------------------------------------------------------------------------------



            CUMULATIVE HYDROLOGIC BUDGET SUMMARIES FOR SIMULATED LAKES
     (ALL FLUID FLUXES ARE SUMS OF VOLUMES ADDED TO THE LAKE SINCE INITIAL TIME)
     ---------------------------------------------------------------------------
 LAKE       PRECIP       EVAP       RUNOFF
   1     4.7327E+05  8.4413E+07  0.0000E+00
   2     2.4990E+05  5.6739E+07  0.0000E+00
   3     1.7210E+05  2.5253E+07  0.0000E+00
   4     2.5815E+05  2.4949E+07  0.0000E+00

            GROUND WATER            SURFACE WATER
 LAKE    INFLOW     OUTFLOW      INFLOW     OUTFLOW
   1  9.2322E+06  1.4874E+06  0.0000E+00  0.0000E+00
   2  2.8935E+07  1.8363E+06  0.0000E+00  0.0000E+00
   3  4.8440E+06  7.1746E+05  0.0000E+00  0.0000E+00
   4  2.0213E+07  4.5693E+05  0.0000E+00  0.0000E+00

         WATER    CONNECTED LAKE   CHANGE       PERCENT
 LAKE     USE         INFLUX       IN VOL.    DISCREPANCY
   1   0.0000E+00   2.0903E+06  -7.4105E+07      0.000
   2   0.0000E+00  -2.7924E+05  -2.9670E+07      0.000
   3   0.0000E+00   3.7452E+06  -1.7209E+07      0.000
   4   0.0000E+00  -5.5650E+06  -1.0500E+07      0.000
 --------------------------------------------------------------------------------


   1 CONNECTED LAKE SET

   2 LAKES:    3  4
1
              HEAD IN LAYER   5 AT END OF TIME STEP   4 IN STRESS PERIOD    2
  ---------------------------------------------------------------------------

          1      2      3      4      5      6      7      8      9     10
 .........................................................................
   1   160.0  158.9  157.3  155.8  154.6  153.9  153.1  152.3  151.5  150.8
   2   160.0  155.7  151.8  149.2  147.6  146.6  145.6  144.7  143.9  143.1
   3   160.0  153.5  147.3  143.2  140.8  139.3  138.0  136.9  135.9  135.0
   4   160.0  152.5  144.7  138.5  134.8  132.6  130.8  129.3  128.2  127.4
   5   160.0  151.8  142.6  133.9  128.7  125.8  123.6  122.0  120.8  119.9
   6   160.0  151.3  140.5  128.9  120.9  117.3  115.1  113.6  112.2  111.4
   7   160.0  151.0  139.2  124.6  108.1  107.4  106.2  105.9  103.6  102.5
   8   160.0  150.9  138.7  123.2  107.6  107.0  104.6  103.3  100.9   99.8
   9   160.0  150.8  138.5  122.8  107.6  107.1  106.8  102.4   99.9   99.7
  10   160.0  150.9  138.7  123.2  107.6  107.0  104.6  103.3  100.9   99.8
  11   160.0  151.0  139.2  124.6  108.1  107.4  106.2  105.9  103.6  102.5
  12   160.0  151.3  140.5  128.9  120.9  117.3  115.1  113.6  112.2  111.4
  13   160.0  151.8  142.6  133.9  128.7  125.8  123.6  122.0  120.8  119.9
  14   160.0  152.5  144.7  138.5  134.8  132.6  130.8  129.3  128.2  127.4
  15   160.0  153.5  147.3  143.2  140.8  139.3  138.0  136.9  135.9  135.0
  16   160.0  155.7  151.8  149.2  147.6  146.6  145.6  144.7  143.9  143.1
  17   160.0  158.9  157.3  155.8  154.6  153.9  153.1  152.3  151.5  150.8
1
              HEAD IN LAYER   5 AT END OF TIME STEP   4 IN STRESS PERIOD    2
  ---------------------------------------------------------------------------

         11     12     13     14     15     16     17     18     19     20
 .........................................................................
   1   150.0  149.2  148.5  147.7  146.9  146.1  145.4  144.6  143.9  142.7
   2   142.3  141.6  140.8  140.1  139.5  138.8  138.1  137.5  137.0  136.5
   3   134.3  133.7  133.2  132.8  132.4  132.1  131.8  131.7  131.6  132.0
   4   126.7  126.3  126.1  126.0  126.1  126.3  126.7  127.3  128.2  129.7
   5   119.4  119.2  119.3  119.6  120.1  120.9  121.9  123.2  124.9  127.9
   6   111.0  111.1  111.7  112.8  114.0  115.2  116.7  118.6  120.9  125.5
   7   102.2  102.4  103.6  106.5  108.0  109.3  111.3  113.2  115.6  123.0
   8    99.8   99.8  100.8  103.2  103.7  103.8  107.1  108.3  108.7  121.2
   9    99.7   99.7   99.8  101.6  103.5  103.6  105.5  108.1  108.5  120.7
  10    99.8   99.8  100.8  103.0  103.7  104.8  107.3  108.4  108.9  121.2
  11   102.2  102.4  103.5  106.3  107.9  109.4  111.4  113.2  115.7  123.0
  12   111.0  111.1  111.7  112.8  113.9  115.1  116.7  118.5  120.9  125.5
  13   119.4  119.2  119.3  119.6  120.1  120.9  121.9  123.2  124.9  127.9
  14   126.7  126.3  126.1  126.0  126.1  126.3  126.7  127.3  128.2  129.7
  15   134.3  133.7  133.2  132.8  132.4  132.1  131.8  131.7  131.6  132.0
  16   142.3  141.6  140.8  140.1  139.5  138.8  138.1  137.5  137.0  136.5
  17   150.0  149.2  148.5  147.7  146.9  146.1  145.4  144.6  143.9  142.7
1
              HEAD IN LAYER   5 AT END OF TIME STEP   4 IN STRESS PERIOD    2
  ---------------------------------------------------------------------------

         21     22
 .................
   1   141.1  140.0
   2   137.2  140.0
   3   134.8  140.0
   4   133.8  140.0
   5   133.2  140.0
   6   132.6  140.0
   7   132.1  140.0
   8   131.9  140.0
   9   131.8  140.0
  10   131.9  140.0
  11   132.1  140.0
  12   132.6  140.0
  13   133.2  140.0
  14   133.8  140.0
  15   134.8  140.0
  16   137.2  140.0
  17   141.1  140.0
1
  VOLUMETRIC BUDGET FOR ENTIRE MODEL AT END OF TIME STEP  4 IN STRESS PERIOD   2
  ------------------------------------------------------------------------------

     CUMULATIVE VOLUMES      L**3       RATES FOR THIS TIME STEP      L**3/T
     ------------------                 ------------------------

           IN:                                      IN:
           ---                                      ---
             STORAGE =    20821042.0000               STORAGE =         148.1249
       CONSTANT HEAD =   804817536.0000         CONSTANT HEAD =     1236038.5000
                  ET =           0.0000                    ET =           0.0000
            RECHARGE =    25814606.0000              RECHARGE =     1740000.0000
     SPECIFIED FLOWS =           0.0000       SPECIFIED FLOWS =           0.0000
       LAKE  SEEPAGE =     4498060.0000         LAKE  SEEPAGE =       20972.7969

            TOTAL IN =   855951232.0000              TOTAL IN =     2997159.5000

          OUT:                                     OUT:
          ----                                     ----
             STORAGE =   511272128.0000               STORAGE =     2260609.7500
       CONSTANT HEAD =           0.0000         CONSTANT HEAD =           0.0000
                  ET =   281465664.0000                    ET =      485299.3750
            RECHARGE =           0.0000              RECHARGE =           0.0000
     SPECIFIED FLOWS =           0.0000       SPECIFIED FLOWS =           0.0000
       LAKE  SEEPAGE =    63223996.0000         LAKE  SEEPAGE =      251254.7031

           TOTAL OUT =   855961792.0000             TOTAL OUT =     2997163.7500

            IN - OUT =      -10560.0000              IN - OUT =          -4.2500

 PERCENT DISCREPANCY =           0.00     PERCENT DISCREPANCY =           0.00






          TIME SUMMARY AT END OF TIME STEP   4 IN STRESS PERIOD    2
                    SECONDS     MINUTES      HOURS       DAYS        YEARS
                    -----------------------------------------------------------
   TIME STEP LENGTH 3.34802E+05  5580.0      93.001      3.8750     1.06093E-02
 STRESS PERIOD TIME 1.28183E+06  21364.      356.06      14.836     4.06187E-02
         TOTAL TIME 3.58418E+07 5.97364E+05  9956.1      414.84      1.1358    
1
 
 SOLVING FOR HEAD 
    10 ITERATIONS FOR TIME STEP   5 IN STRESS PERIOD    2

 HEAD/DRAWDOWN PRINTOUT FLAG = 1     TOTAL BUDGET PRINTOUT FLAG = 1
 CELL-BY-CELL FLOW TERM FLAG = 1

 OUTPUT FLAGS FOR EACH LAYER:
          HEAD    DRAWDOWN  HEAD  DRAWDOWN
 LAYER  PRINTOUT  PRINTOUT  SAVE    SAVE
 -----------------------------------------
    1       0         0       0       0
    2       0         0       0       0
    3       0         0       0       0
    4       0         0       0       0
    5       1         0       0       0

 --------------------------------------------------------------------------------
 TIME STEP   5     NUMBER OF CONNECTED LAKES IS  2     TOTAL AREA =  0.250000000D+07

 READJUST STAGE OF LAKE   4 TO LAKE   4 SILL ELEVATION BY -0.19 TO  108.00


           SURFACE       SILL   WATER BUDGET  STAGE  CORRECTED   LAKE VOLUME
  LAKE       AREA      ELEVATION   STAGE   CORRECTION  STAGE     CORRECTION
 --------------------------------------------------------------------------------

   3     0.10000E+07 -99999.00    103.86      0.29    104.15    0.28698E+06
   4     0.15000E+07    108.00    108.19     -0.19    108.00   -0.28697E+06

     SECTIONS OF THE LAKE BOTTOM HAVE BECOME DRY.  THE DRYSECTIONS
     LIE ABOVE THE FOLLOWING 19 AQUIFER CELLS (LAYER,ROW,COLUMN):
     (  2,  9,  8)  (  2,  7,  9)  (  2,  8,  9)  (  2, 10,  9)  (  2, 11,  9)
     (  2,  7, 10)  (  2, 11, 10)  (  2,  7, 11)  (  2, 11, 11)  (  2,  7, 12)
     (  2, 11, 12)  (  2,  7, 13)  (  2,  8, 13)  (  2, 10, 13)  (  2, 11, 13)
     (  2,  9, 14)  (  2, 10, 15)  (  2, 10, 16)  (  2,  9, 17)  (

 PERIOD     2     TIME STEP     5     TIME STEP LENGTH  3.9913E+00
 PERIOD TIME  1.8827E+01     TOTAL SIMULATION TIME  4.1883E+02


                 HYDROLOGIC BUDGET SUMMARIES FOR SIMULATED LAKES
     (ALL FLUID FLUXES ARE VOLUMES ADDED TO THE LAKE DURING PRESENT TIME STEP)
     -------------------------------------------------------------------------
 LAKE    STAGE         VOLUME     VOL.CHANGE      PRECIP     EVAPORATION        RUNOFF
   1    99.7475     7.5557E+06    1.6160E+05    1.2732E+05    1.1305E+05    0.0000E+00
   2   107.2164     1.0811E+07    4.8134E+05    1.7362E+05    1.5416E+05    0.0000E+00
   3   104.1498     7.1497E+06    3.5858E+05    4.6299E+04    4.1110E+04    0.0000E+00
   4   108.0000     1.1500E+07    0.0000E+00    6.9448E+04    6.1665E+04    0.0000E+00

            GROUND WATER            SURFACE WATER        WATER
 LAKE    INFLOW     OUTFLOW      INFLOW     OUTFLOW       USE
   1  1.4733E+05  0.0000E+00  0.0000E+00  0.0000E+00  0.0000E+00
   2  5.4935E+05  8.7463E+04  0.0000E+00  0.0000E+00  0.0000E+00
   3  7.2867E+04  6.4468E+03  0.0000E+00  0.0000E+00  0.0000E+00
   4  2.8784E+05  8.6455E+03  0.0000E+00  0.0000E+00  0.0000E+00

      CONNECTED LAKE   TIME-STEP         STAGE-CHANGE          PERCENT
 LAKE    INFLUX      SURFACE AREA   TIME STEP  CUMULATIVE    DISCREPANCY
   1   0.0000E+00     2.7500E+06   5.8765E-02 -1.5252E+01       0.000
   2   0.0000E+00     3.7500E+06   1.2836E-01 -7.7836E+00       0.000
   3   2.8698E+05     1.0000E+06   3.5859E-01 -1.0850E+01       0.000
   4  -2.8697E+05     1.5000E+06   0.0000E+00 -7.0000E+00       0.000
 --------------------------------------------------------------------------------



            CUMULATIVE HYDROLOGIC BUDGET SUMMARIES FOR SIMULATED LAKES
     (ALL FLUID FLUXES ARE SUMS OF VOLUMES ADDED TO THE LAKE SINCE INITIAL TIME)
     ---------------------------------------------------------------------------
 LAKE       PRECIP       EVAP       RUNOFF
   1     6.0059E+05  8.4526E+07  0.0000E+00
   2     4.2352E+05  5.6893E+07  0.0000E+00
   3     2.1840E+05  2.5294E+07  0.0000E+00
   4     3.2759E+05  2.5011E+07  0.0000E+00

            GROUND WATER            SURFACE WATER
 LAKE    INFLOW     OUTFLOW      INFLOW     OUTFLOW
   1  9.3795E+06  1.4874E+06  0.0000E+00  0.0000E+00
   2  2.9484E+07  1.9237E+06  0.0000E+00  0.0000E+00
   3  4.9169E+06  7.2391E+05  0.0000E+00  0.0000E+00
   4  2.0501E+07  4.6557E+05  0.0000E+00  0.0000E+00

         WATER    CONNECTED LAKE   CHANGE       PERCENT
 LAKE     USE         INFLUX       IN VOL.    DISCREPANCY
   1   0.0000E+00   2.0903E+06  -7.3943E+07      0.000
   2   0.0000E+00  -2.7924E+05  -2.9188E+07      0.000
   3   0.0000E+00   4.0322E+06  -1.6850E+07      0.000
   4   0.0000E+00  -5.8520E+06  -1.0500E+07      0.000
 --------------------------------------------------------------------------------


   1 CONNECTED LAKE SET

   2 LAKES:    3  4
1
              HEAD IN LAYER   5 AT END OF TIME STEP   5 IN STRESS PERIOD    2
  ---------------------------------------------------------------------------

          1      2      3      4      5      6      7      8      9     10
 .........................................................................
   1   160.0  158.9  157.3  155.8  154.6  153.9  153.1  152.3  151.5  150.8
   2   160.0  156.0  152.1  149.5  147.9  146.9  145.9  145.0  144.2  143.4
   3   160.0  153.8  147.6  143.5  141.1  139.6  138.3  137.2  136.2  135.3
   4   160.0  152.8  145.0  138.8  135.1  132.9  131.1  129.7  128.5  127.7
   5   160.0  152.1  142.9  134.3  129.0  126.2  123.9  122.3  121.0  120.2
   6   160.0  151.6  140.8  129.2  121.1  117.6  115.3  113.9  112.5  111.6
   7   160.0  151.3  139.5  124.8  108.2  107.5  106.8  106.3  103.9  102.8
   8   160.0  151.1  138.9  123.4  107.7  107.2  105.2  103.6  101.1   99.9
   9   160.0  151.1  138.8  123.0  107.7  107.2  106.9  102.7   99.9   99.8
  10   160.0  151.1  138.9  123.4  107.7  107.2  105.2  103.6  101.1   99.9
  11   160.0  151.3  139.5  124.8  108.2  107.5  106.8  106.3  103.9  102.8
  12   160.0  151.6  140.8  129.2  121.1  117.6  115.3  113.9  112.5  111.6
  13   160.0  152.1  142.9  134.3  129.0  126.2  123.9  122.3  121.0  120.2
  14   160.0  152.8  145.0  138.8  135.1  132.9  131.1  129.7  128.5  127.7
  15   160.0  153.8  147.6  143.5  141.1  139.6  138.3  137.2  136.2  135.3
  16   160.0  156.0  152.1  149.5  147.9  146.9  145.9  145.0  144.2  143.4
  17   160.0  158.9  157.3  155.8  154.6  153.9  153.1  152.3  151.5  150.8
1
              HEAD IN LAYER   5 AT END OF TIME STEP   5 IN STRESS PERIOD    2
  ---------------------------------------------------------------------------

         11     12     13     14     15     16     17     18     19     20
 .........................................................................
   1   150.0  149.2  148.5  147.7  146.9  146.1  145.4  144.6  143.9  142.7
   2   142.6  141.9  141.1  140.4  139.8  139.1  138.5  137.9  137.4  136.8
   3   134.6  134.0  133.5  133.1  132.7  132.4  132.1  131.9  131.9  132.3
   4   127.0  126.6  126.4  126.3  126.3  126.6  127.0  127.6  128.4  130.0
   5   119.7  119.5  119.6  119.9  120.4  121.2  122.2  123.5  125.2  128.1
   6   111.3  111.4  111.9  113.1  114.2  115.4  116.9  118.8  121.2  125.7
   7   102.5  102.8  104.0  106.7  108.2  109.5  111.6  113.4  115.8  123.2
   8    99.8   99.9  101.1  103.4  104.0  104.2  107.4  108.4  108.8  121.4
   9    99.8   99.8   99.9  101.8  103.8  104.0  105.8  108.1  108.5  120.9
  10    99.8   99.9  101.0  103.3  104.0  105.2  107.6  108.4  108.9  121.5
  11   102.5  102.8  103.9  106.6  108.1  109.7  111.6  113.4  115.9  123.2
  12   111.2  111.3  111.9  113.0  114.1  115.4  116.9  118.8  121.2  125.7
  13   119.7  119.5  119.5  119.9  120.4  121.2  122.2  123.5  125.2  128.1
  14   127.0  126.6  126.4  126.3  126.3  126.6  127.0  127.6  128.4  130.0
  15   134.6  134.0  133.5  133.1  132.7  132.4  132.1  131.9  131.9  132.3
  16   142.6  141.9  141.1  140.4  139.8  139.1  138.5  137.9  137.4  136.8
  17   150.0  149.2  148.5  147.7  146.9  146.1  145.4  144.6  143.9  142.7
1
              HEAD IN LAYER   5 AT END OF TIME STEP   5 IN STRESS PERIOD    2
  ---------------------------------------------------------------------------

         21     22
 .................
   1   141.1  140.0
   2   137.5  140.0
   3   135.1  140.0
   4   134.1  140.0
   5   133.5  140.0
   6   132.9  140.0
   7   132.4  140.0
   8   132.1  140.0
   9   132.0  140.0
  10   132.1  140.0
  11   132.4  140.0
  12   132.9  140.0
  13   133.5  140.0
  14   134.1  140.0
  15   135.1  140.0
  16   137.5  140.0
  17   141.1  140.0
1
  VOLUMETRIC BUDGET FOR ENTIRE MODEL AT END OF TIME STEP  5 IN STRESS PERIOD   2
  ------------------------------------------------------------------------------

     CUMULATIVE VOLUMES      L**3       RATES FOR THIS TIME STEP      L**3/T
     ------------------                 ------------------------

           IN:                                      IN:
           ---                                      ---
             STORAGE =    20821042.0000               STORAGE =           0.0000
       CONSTANT HEAD =   809543104.0000         CONSTANT HEAD =     1183977.7500
                  ET =           0.0000                    ET =           0.0000
            RECHARGE =    32632110.0000              RECHARGE =     1708100.0000
     SPECIFIED FLOWS =           0.0000       SPECIFIED FLOWS =           0.0000
       LAKE  SEEPAGE =     4600615.5000         LAKE  SEEPAGE =       25694.9180

            TOTAL IN =   867596864.0000              TOTAL IN =     2917772.7500

          OUT:                                     OUT:
          ----                                     ----
             STORAGE =   519993504.0000               STORAGE =     2185105.5000
       CONSTANT HEAD =           0.0000         CONSTANT HEAD =           0.0000
                  ET =   283332640.0000                    ET =      467761.7812
            RECHARGE =           0.0000              RECHARGE =           0.0000
     SPECIFIED FLOWS =           0.0000       SPECIFIED FLOWS =           0.0000
       LAKE  SEEPAGE =    64281380.0000         LAKE  SEEPAGE =      264923.3438

           TOTAL OUT =   867607552.0000             TOTAL OUT =     2917790.5000

            IN - OUT =      -10688.0000              IN - OUT =         -17.7500

 PERCENT DISCREPANCY =           0.00     PERCENT DISCREPANCY =           0.00






          TIME SUMMARY AT END OF TIME STEP   5 IN STRESS PERIOD    2
                    SECONDS     MINUTES      HOURS       DAYS        YEARS
                    -----------------------------------------------------------
   TIME STEP LENGTH 3.44847E+05  5747.4      95.791      3.9913     1.09275E-02
 STRESS PERIOD TIME 1.62668E+06  27111.      451.85      18.827     5.15462E-02
         TOTAL TIME 3.61867E+07 6.03111E+05  10052.      418.83      1.1467    
1
 
 SOLVING FOR HEAD 
    10 ITERATIONS FOR TIME STEP   6 IN STRESS PERIOD    2

 HEAD/DRAWDOWN PRINTOUT FLAG = 1     TOTAL BUDGET PRINTOUT FLAG = 1
 CELL-BY-CELL FLOW TERM FLAG = 1

 OUTPUT FLAGS FOR EACH LAYER:
          HEAD    DRAWDOWN  HEAD  DRAWDOWN
 LAYER  PRINTOUT  PRINTOUT  SAVE    SAVE
 -----------------------------------------
    1       0         0       0       0
    2       0         0       0       0
    3       0         0       0       0
    4       0         0       0       0
    5       1         0       0       0

 --------------------------------------------------------------------------------
 TIME STEP   6     NUMBER OF CONNECTED LAKES IS  2     TOTAL AREA =  0.250000000D+07

 READJUST STAGE OF LAKE   4 TO LAKE   4 SILL ELEVATION BY -0.20 TO  108.00


           SURFACE       SILL   WATER BUDGET  STAGE  CORRECTED   LAKE VOLUME
  LAKE       AREA      ELEVATION   STAGE   CORRECTION  STAGE     CORRECTION
 --------------------------------------------------------------------------------

   3     0.10000E+07 -99999.00    104.22      0.31    104.53    0.30658E+06
   4     0.15000E+07    108.00    108.20     -0.20    108.00   -0.30658E+06

     SECTIONS OF THE LAKE BOTTOM HAVE BECOME DRY.  THE DRYSECTIONS
     LIE ABOVE THE FOLLOWING 19 AQUIFER CELLS (LAYER,ROW,COLUMN):
     (  2,  9,  8)  (  2,  7,  9)  (  2,  8,  9)  (  2, 10,  9)  (  2, 11,  9)
     (  2,  7, 10)  (  2, 11, 10)  (  2,  7, 11)  (  2, 11, 11)  (  2,  7, 12)
     (  2, 11, 12)  (  2,  7, 13)  (  2,  8, 13)  (  2, 10, 13)  (  2, 11, 13)
     (  2,  9, 14)  (  2, 10, 15)  (  2, 10, 16)  (  2,  9, 17)  (

 PERIOD     2     TIME STEP     6     TIME STEP LENGTH  4.1110E+00
 PERIOD TIME  2.2938E+01     TOTAL SIMULATION TIME  4.2294E+02


                 HYDROLOGIC BUDGET SUMMARIES FOR SIMULATED LAKES
     (ALL FLUID FLUXES ARE VOLUMES ADDED TO THE LAKE DURING PRESENT TIME STEP)
     -------------------------------------------------------------------------
 LAKE    STAGE         VOLUME     VOL.CHANGE      PRECIP     EVAPORATION        RUNOFF
   1    99.8143     7.7392E+06    1.8346E+05    1.3114E+05    1.1644E+05    0.0000E+00
   2   107.3595     1.1348E+07    5.3654E+05    1.7883E+05    1.5879E+05    0.0000E+00
   3   104.5280     7.5279E+06    3.7823E+05    4.7688E+04    4.2343E+04    0.0000E+00
   4   108.0000     1.1500E+07    0.0000E+00    7.1532E+04    6.3515E+04    0.0000E+00

            GROUND WATER            SURFACE WATER        WATER
 LAKE    INFLOW     OUTFLOW      INFLOW     OUTFLOW       USE
   1  1.6876E+05  0.0000E+00  0.0000E+00  0.0000E+00  0.0000E+00
   2  5.9101E+05  7.4519E+04  0.0000E+00  0.0000E+00  0.0000E+00
   3  7.3471E+04  7.1700E+03  0.0000E+00  0.0000E+00  0.0000E+00
   4  3.0598E+05  7.4130E+03  0.0000E+00  0.0000E+00  0.0000E+00

      CONNECTED LAKE   TIME-STEP         STAGE-CHANGE          PERCENT
 LAKE    INFLUX      SURFACE AREA   TIME STEP  CUMULATIVE    DISCREPANCY
   1   0.0000E+00     2.7500E+06   6.6711E-02 -1.5186E+01       0.000
   2   0.0000E+00     3.7500E+06   1.4308E-01 -7.6405E+00       0.000
   3   3.0658E+05     1.0000E+06   3.7823E-01 -1.0472E+01       0.000
   4  -3.0658E+05     1.5000E+06   0.0000E+00 -7.0000E+00       0.000
 --------------------------------------------------------------------------------



            CUMULATIVE HYDROLOGIC BUDGET SUMMARIES FOR SIMULATED LAKES
     (ALL FLUID FLUXES ARE SUMS OF VOLUMES ADDED TO THE LAKE SINCE INITIAL TIME)
     ---------------------------------------------------------------------------
 LAKE       PRECIP       EVAP       RUNOFF
   1     7.3173E+05  8.4643E+07  0.0000E+00
   2     6.0235E+05  5.7052E+07  0.0000E+00
   3     2.6608E+05  2.5336E+07  0.0000E+00
   4     3.9913E+05  2.5074E+07  0.0000E+00

            GROUND WATER            SURFACE WATER
 LAKE    INFLOW     OUTFLOW      INFLOW     OUTFLOW
   1  9.5483E+06  1.4874E+06  0.0000E+00  0.0000E+00
   2  3.0075E+07  1.9982E+06  0.0000E+00  0.0000E+00
   3  4.9903E+06  7.3108E+05  0.0000E+00  0.0000E+00
   4  2.0807E+07  4.7299E+05  0.0000E+00  0.0000E+00

         WATER    CONNECTED LAKE   CHANGE       PERCENT
 LAKE     USE         INFLUX       IN VOL.    DISCREPANCY
   1   0.0000E+00   2.0903E+06  -7.3760E+07      0.000
   2   0.0000E+00  -2.7924E+05  -2.8652E+07      0.000
   3   0.0000E+00   4.3388E+06  -1.6472E+07      0.000
   4   0.0000E+00  -6.1586E+06  -1.0500E+07      0.000
 --------------------------------------------------------------------------------


   1 CONNECTED LAKE SET

   2 LAKES:    3  4
1
              HEAD IN LAYER   5 AT END OF TIME STEP   6 IN STRESS PERIOD    2
  ---------------------------------------------------------------------------

          1      2      3      4      5      6      7      8      9     10
 .........................................................................
   1   160.0  158.9  157.3  155.8  154.6  153.9  153.1  152.3  151.5  150.8
   2   160.0  156.2  152.4  149.8  148.2  147.2  146.2  145.3  144.5  143.7
   3   160.0  154.1  148.0  143.8  141.4  139.9  138.6  137.5  136.5  135.7
   4   160.0  153.1  145.3  139.1  135.4  133.2  131.4  130.0  128.9  128.0
   5   160.0  152.4  143.2  134.6  129.4  126.5  124.2  122.6  121.3  120.5
   6   160.0  151.8  141.1  129.5  121.4  117.9  115.6  114.1  112.7  111.9
   7   160.0  151.5  139.8  125.1  108.3  107.7  107.4  106.6  104.3  103.2
   8   160.0  151.4  139.2  123.7  107.9  107.3  105.8  104.0  101.4  100.0
   9   160.0  151.4  139.1  123.2  107.9  107.4  107.1  102.9  100.0   99.8
  10   160.0  151.4  139.2  123.7  107.9  107.3  105.8  104.0  101.4  100.0
  11   160.0  151.5  139.8  125.1  108.3  107.7  107.4  106.6  104.3  103.2
  12   160.0  151.8  141.1  129.5  121.4  117.9  115.6  114.1  112.7  111.9
  13   160.0  152.4  143.2  134.6  129.4  126.5  124.2  122.6  121.3  120.5
  14   160.0  153.1  145.3  139.1  135.4  133.2  131.4  130.0  128.9  128.0
  15   160.0  154.1  148.0  143.8  141.4  139.9  138.6  137.5  136.5  135.7
  16   160.0  156.2  152.4  149.8  148.2  147.2  146.2  145.3  144.5  143.7
  17   160.0  158.9  157.3  155.8  154.6  153.9  153.1  152.3  151.5  150.8
1
              HEAD IN LAYER   5 AT END OF TIME STEP   6 IN STRESS PERIOD    2
  ---------------------------------------------------------------------------

         11     12     13     14     15     16     17     18     19     20
 .........................................................................
   1   150.0  149.2  148.5  147.7  146.9  146.1  145.4  144.6  143.9  142.7
   2   142.9  142.1  141.4  140.7  140.0  139.4  138.7  138.2  137.7  137.1
   3   134.9  134.3  133.8  133.4  133.0  132.7  132.4  132.2  132.2  132.6
   4   127.4  126.9  126.7  126.6  126.6  126.9  127.3  127.9  128.7  130.3
   5   120.0  119.8  119.8  120.2  120.7  121.5  122.5  123.8  125.4  128.4
   6   111.5  111.6  112.2  113.3  114.4  115.6  117.2  119.0  121.4  126.0
   7   102.9  103.1  104.3  107.0  108.5  109.7  111.8  113.6  116.0  123.5
   8    99.9  100.0  101.4  103.7  104.4  104.5  107.6  108.4  108.8  121.7
   9    99.8   99.8  100.0  102.1  104.2  104.3  106.1  108.2  108.5  121.2
  10    99.9  100.0  101.3  103.6  104.4  105.6  107.8  108.4  109.0  121.7
  11   102.9  103.1  104.2  106.8  108.4  109.9  111.8  113.6  116.1  123.5
  12   111.5  111.6  112.2  113.2  114.4  115.6  117.2  119.0  121.4  126.0
  13   120.0  119.8  119.8  120.1  120.7  121.4  122.5  123.8  125.4  128.4
  14   127.3  126.9  126.7  126.6  126.6  126.9  127.3  127.9  128.7  130.3
  15   134.9  134.3  133.8  133.3  133.0  132.7  132.4  132.2  132.2  132.6
  16   142.9  142.1  141.4  140.7  140.0  139.4  138.7  138.2  137.7  137.1
  17   150.0  149.2  148.5  147.7  146.9  146.1  145.4  144.6  143.9  142.7
1
              HEAD IN LAYER   5 AT END OF TIME STEP   6 IN STRESS PERIOD    2
  ---------------------------------------------------------------------------

         21     22
 .................
   1   141.1  140.0
   2   137.8  140.0
   3   135.4  140.0
   4   134.4  140.0
   5   133.8  140.0
   6   133.2  140.0
   7   132.7  140.0
   8   132.4  140.0
   9   132.3  140.0
  10   132.4  140.0
  11   132.7  140.0
  12   133.2  140.0
  13   133.8  140.0
  14   134.4  140.0
  15   135.4  140.0
  16   137.8  140.0
  17   141.1  140.0
1
  VOLUMETRIC BUDGET FOR ENTIRE MODEL AT END OF TIME STEP  6 IN STRESS PERIOD   2
  ------------------------------------------------------------------------------

     CUMULATIVE VOLUMES      L**3       RATES FOR THIS TIME STEP      L**3/T
     ------------------                 ------------------------

           IN:                                      IN:
           ---                                      ---
             STORAGE =    20821042.0000               STORAGE =           0.0000
       CONSTANT HEAD =   814209216.0000         CONSTANT HEAD =     1135027.0000
                  ET =           0.0000                    ET =           0.0000
            RECHARGE =    39654140.0000              RECHARGE =     1708100.0000
     SPECIFIED FLOWS =           0.0000       SPECIFIED FLOWS =           0.0000
       LAKE  SEEPAGE =     4689717.5000         LAKE  SEEPAGE =       21673.9199

            TOTAL IN =   879374144.0000              TOTAL IN =     2864801.0000

          OUT:                                     OUT:
          ----                                     ----
             STORAGE =   528623296.0000               STORAGE =     2099186.0000
       CONSTANT HEAD =           0.0000         CONSTANT HEAD =           0.0000
                  ET =   285340928.0000                    ET =      488514.9375
            RECHARGE =           0.0000              RECHARGE =           0.0000
     SPECIFIED FLOWS =           0.0000       SPECIFIED FLOWS =           0.0000
       LAKE  SEEPAGE =    65420596.0000         LAKE  SEEPAGE =      277112.9375

           TOTAL OUT =   879384832.0000             TOTAL OUT =     2864814.0000

            IN - OUT =      -10688.0000              IN - OUT =         -13.0000

 PERCENT DISCREPANCY =           0.00     PERCENT DISCREPANCY =           0.00






          TIME SUMMARY AT END OF TIME STEP   6 IN STRESS PERIOD    2
                    SECONDS     MINUTES      HOURS       DAYS        YEARS
                    -----------------------------------------------------------
   TIME STEP LENGTH 3.55192E+05  5919.9      98.664      4.1110     1.12554E-02
 STRESS PERIOD TIME 1.98187E+06  33031.      550.52      22.938     6.28016E-02
         TOTAL TIME 3.65419E+07 6.09031E+05  10151.      422.94      1.1579    
1
 
 SOLVING FOR HEAD 

 CELL CONVERSIONS FOR ITER.=  3  LAYER=  1  STEP=  7  PERIOD=  2   (ROW,COL)
    WET(  7, 14)   WET( 11, 14)   
    10 ITERATIONS FOR TIME STEP   7 IN STRESS PERIOD    2

 HEAD/DRAWDOWN PRINTOUT FLAG = 1     TOTAL BUDGET PRINTOUT FLAG = 1
 CELL-BY-CELL FLOW TERM FLAG = 1

 OUTPUT FLAGS FOR EACH LAYER:
          HEAD    DRAWDOWN  HEAD  DRAWDOWN
 LAYER  PRINTOUT  PRINTOUT  SAVE    SAVE
 -----------------------------------------
    1       0         0       0       0
    2       0         0       0       0
    3       0         0       0       0
    4       0         0       0       0
    5       1         0       0       0

 --------------------------------------------------------------------------------
 TIME STEP   7     NUMBER OF CONNECTED LAKES IS  2     TOTAL AREA =  0.250000000D+07

 READJUST STAGE OF LAKE   4 TO LAKE   4 SILL ELEVATION BY -0.22 TO  108.00


           SURFACE       SILL   WATER BUDGET  STAGE  CORRECTED   LAKE VOLUME
  LAKE       AREA      ELEVATION   STAGE   CORRECTION  STAGE     CORRECTION
 --------------------------------------------------------------------------------

   3     0.10000E+07 -99999.00    104.60      0.33    104.93    0.32706E+06
   4     0.15000E+07    108.00    108.22     -0.22    108.00   -0.32706E+06

     SECTIONS OF THE LAKE BOTTOM HAVE BECOME DRY.  THE DRYSECTIONS
     LIE ABOVE THE FOLLOWING 19 AQUIFER CELLS (LAYER,ROW,COLUMN):
     (  2,  9,  8)  (  2,  7,  9)  (  2,  8,  9)  (  2, 10,  9)  (  2, 11,  9)
     (  2,  7, 10)  (  2, 11, 10)  (  2,  7, 11)  (  2, 11, 11)  (  2,  7, 12)
     (  2, 11, 12)  (  2,  7, 13)  (  2,  8, 13)  (  2, 10, 13)  (  2, 11, 13)
     (  2,  9, 14)  (  2, 10, 15)  (  2, 10, 16)  (  2,  9, 17)  (

 PERIOD     2     TIME STEP     7     TIME STEP LENGTH  4.2343E+00
 PERIOD TIME  2.7173E+01     TOTAL SIMULATION TIME  4.2717E+02


                 HYDROLOGIC BUDGET SUMMARIES FOR SIMULATED LAKES
     (ALL FLUID FLUXES ARE VOLUMES ADDED TO THE LAKE DURING PRESENT TIME STEP)
     -------------------------------------------------------------------------
 LAKE    STAGE         VOLUME     VOL.CHANGE      PRECIP     EVAPORATION        RUNOFF
   1    99.8890     7.9447E+06    2.0557E+05    1.3508E+05    1.1994E+05    0.0000E+00
   2   107.5136     1.1926E+07    5.7798E+05    1.8419E+05    1.6355E+05    0.0000E+00
   3   104.9262     7.9262E+06    3.9823E+05    4.9118E+04    4.3614E+04    0.0000E+00
   4   108.0000     1.1500E+07    0.0000E+00    7.3678E+04    6.5421E+04    0.0000E+00

            GROUND WATER            SURFACE WATER        WATER
 LAKE    INFLOW     OUTFLOW      INFLOW     OUTFLOW       USE
   1  1.9044E+05  0.0000E+00  0.0000E+00  0.0000E+00  0.0000E+00
   2  6.4142E+05  8.4082E+04  0.0000E+00  0.0000E+00  0.0000E+00
   3  7.3767E+04  8.1073E+03  0.0000E+00  0.0000E+00  0.0000E+00
   4  3.2492E+05  6.1206E+03  0.0000E+00  0.0000E+00  0.0000E+00

      CONNECTED LAKE   TIME-STEP         STAGE-CHANGE          PERCENT
 LAKE    INFLUX      SURFACE AREA   TIME STEP  CUMULATIVE    DISCREPANCY
   1   0.0000E+00     2.7500E+06   7.4754E-02 -1.5111E+01       0.000
   2   0.0000E+00     3.7500E+06   1.5413E-01 -7.4864E+00       0.000
   3   3.2706E+05     1.0000E+06   3.9823E-01 -1.0074E+01       0.000
   4  -3.2706E+05     1.5000E+06   0.0000E+00 -7.0000E+00       0.000
 --------------------------------------------------------------------------------



            CUMULATIVE HYDROLOGIC BUDGET SUMMARIES FOR SIMULATED LAKES
     (ALL FLUID FLUXES ARE SUMS OF VOLUMES ADDED TO THE LAKE SINCE INITIAL TIME)
     ---------------------------------------------------------------------------
 LAKE       PRECIP       EVAP       RUNOFF
   1     8.6681E+05  8.4763E+07  0.0000E+00
   2     7.8655E+05  5.7215E+07  0.0000E+00
   3     3.1520E+05  2.5380E+07  0.0000E+00
   4     4.7280E+05  2.5140E+07  0.0000E+00

            GROUND WATER            SURFACE WATER
 LAKE    INFLOW     OUTFLOW      INFLOW     OUTFLOW
   1  9.7387E+06  1.4874E+06  0.0000E+00  0.0000E+00
   2  3.0716E+07  2.0823E+06  0.0000E+00  0.0000E+00
   3  5.0641E+06  7.3919E+05  0.0000E+00  0.0000E+00
   4  2.1132E+07  4.7911E+05  0.0000E+00  0.0000E+00

         WATER    CONNECTED LAKE   CHANGE       PERCENT
 LAKE     USE         INFLUX       IN VOL.    DISCREPANCY
   1   0.0000E+00   2.0903E+06  -7.3554E+07      0.000
   2   0.0000E+00  -2.7924E+05  -2.8074E+07      0.000
   3   0.0000E+00   4.6659E+06  -1.6074E+07      0.000
   4   0.0000E+00  -6.4856E+06  -1.0500E+07      0.000
 --------------------------------------------------------------------------------


   1 CONNECTED LAKE SET

   2 LAKES:    3  4
1
              HEAD IN LAYER   5 AT END OF TIME STEP   7 IN STRESS PERIOD    2
  ---------------------------------------------------------------------------

          1      2      3      4      5      6      7      8      9     10
 .........................................................................
   1   160.0  158.9  157.3  155.8  154.6  153.9  153.1  152.3  151.5  150.8
   2   160.0  156.5  152.7  150.1  148.5  147.4  146.5  145.6  144.7  143.9
   3   160.0  154.4  148.3  144.1  141.7  140.2  138.9  137.8  136.8  136.0
   4   160.0  153.3  145.6  139.5  135.7  133.6  131.8  130.3  129.2  128.3
   5   160.0  152.6  143.5  134.9  129.7  126.8  124.6  122.9  121.7  120.8
   6   160.0  152.1  141.4  129.8  121.7  118.2  115.9  114.4  113.0  112.1
   7   160.0  151.8  140.1  125.3  108.5  107.9  107.7  106.9  104.6  103.5
   8   160.0  151.6  139.5  123.9  108.0  107.5  106.4  104.3  101.6  100.1
   9   160.0  151.6  139.3  123.5  108.0  107.5  107.3  103.2  100.1   99.9
  10   160.0  151.6  139.5  123.9  108.0  107.5  106.4  104.3  101.6  100.1
  11   160.0  151.8  140.1  125.3  108.5  107.9  107.7  106.9  104.6  103.5
  12   160.0  152.1  141.4  129.8  121.7  118.2  115.9  114.4  113.0  112.1
  13   160.0  152.6  143.5  134.9  129.7  126.8  124.6  122.9  121.7  120.8
  14   160.0  153.3  145.6  139.5  135.7  133.6  131.8  130.3  129.2  128.3
  15   160.0  154.4  148.3  144.1  141.7  140.2  138.9  137.8  136.8  136.0
  16   160.0  156.5  152.7  150.1  148.5  147.4  146.5  145.6  144.7  143.9
  17   160.0  158.9  157.3  155.8  154.6  153.9  153.1  152.3  151.5  150.8
1
              HEAD IN LAYER   5 AT END OF TIME STEP   7 IN STRESS PERIOD    2
  ---------------------------------------------------------------------------

         11     12     13     14     15     16     17     18     19     20
 .........................................................................
   1   150.0  149.2  148.5  147.7  146.9  146.1  145.4  144.6  143.9  142.7
   2   143.2  142.4  141.7  141.0  140.3  139.7  139.0  138.4  137.9  137.4
   3   135.2  134.6  134.1  133.6  133.3  132.9  132.7  132.5  132.5  133.0
   4   127.7  127.2  127.0  126.9  127.0  127.2  127.6  128.2  129.0  130.6
   5   120.3  120.1  120.1  120.5  121.0  121.7  122.8  124.1  125.7  128.7
   6   111.8  111.9  112.4  113.5  114.7  115.9  117.4  119.3  121.7  126.3
   7   103.2  103.4  104.7  107.2  108.7  110.0  112.0  113.8  116.2  123.7
   8   100.0  100.1  101.6  104.0  104.7  104.9  107.8  108.4  108.8  121.9
   9    99.9   99.9  100.1  102.4  104.5  104.7  106.4  108.2  108.6  121.4
  10   100.0  100.1  101.5  103.9  104.8  105.9  108.1  108.5  109.0  121.9
  11   103.2  103.4  104.6  107.1  108.7  110.2  112.1  113.8  116.2  123.7
  12   111.7  111.8  112.4  113.5  114.6  115.9  117.4  119.3  121.7  126.3
  13   120.3  120.1  120.1  120.4  121.0  121.7  122.8  124.1  125.7  128.7
  14   127.7  127.2  127.0  126.9  126.9  127.2  127.6  128.2  129.0  130.6
  15   135.2  134.6  134.1  133.6  133.3  132.9  132.7  132.5  132.5  133.0
  16   143.2  142.4  141.7  141.0  140.3  139.7  139.0  138.4  137.9  137.4
  17   150.0  149.2  148.5  147.7  146.9  146.1  145.4  144.6  143.9  142.7
1
              HEAD IN LAYER   5 AT END OF TIME STEP   7 IN STRESS PERIOD    2
  ---------------------------------------------------------------------------

         21     22
 .................
   1   141.1  140.0
   2   138.0  140.0
   3   135.7  140.0
   4   134.7  140.0
   5   134.1  140.0
   6   133.4  140.0
   7   132.9  140.0
   8   132.6  140.0
   9   132.5  140.0
  10   132.6  140.0
  11   132.9  140.0
  12   133.4  140.0
  13   134.1  140.0
  14   134.7  140.0
  15   135.7  140.0
  16   138.0  140.0
  17   141.1  140.0
1
  VOLUMETRIC BUDGET FOR ENTIRE MODEL AT END OF TIME STEP  7 IN STRESS PERIOD   2
  ------------------------------------------------------------------------------

     CUMULATIVE VOLUMES      L**3       RATES FOR THIS TIME STEP      L**3/T
     ------------------                 ------------------------

           IN:                                      IN:
           ---                                      ---
             STORAGE =    20821042.0000               STORAGE =           0.0000
       CONSTANT HEAD =   818820480.0000         CONSTANT HEAD =     1089016.5000
                  ET =           0.0000                    ET =           0.0000
            RECHARGE =    46886832.0000              RECHARGE =     1708100.0000
     SPECIFIED FLOWS =           0.0000       SPECIFIED FLOWS =           0.0000
       LAKE  SEEPAGE =     4788027.5000         LAKE  SEEPAGE =       23217.2461

            TOTAL IN =   891316352.0000              TOTAL IN =     2820333.7500

          OUT:                                     OUT:
          ----                                     ----
             STORAGE =   537177216.0000               STORAGE =     2020126.2500
       CONSTANT HEAD =           0.0000         CONSTANT HEAD =           0.0000
                  ET =   287498816.0000                    ET =      509612.0312
            RECHARGE =           0.0000              RECHARGE =           0.0000
     SPECIFIED FLOWS =           0.0000       SPECIFIED FLOWS =           0.0000
       LAKE  SEEPAGE =    66651140.0000         LAKE  SEEPAGE =      290610.3125

           TOTAL OUT =   891327168.0000             TOTAL OUT =     2820348.5000

            IN - OUT =      -10816.0000              IN - OUT =         -14.7500

 PERCENT DISCREPANCY =           0.00     PERCENT DISCREPANCY =           0.00






          TIME SUMMARY AT END OF TIME STEP   7 IN STRESS PERIOD    2
                    SECONDS     MINUTES      HOURS       DAYS        YEARS
                    -----------------------------------------------------------
   TIME STEP LENGTH 3.65848E+05  6097.5      101.62      4.2343     1.15930E-02
 STRESS PERIOD TIME 2.34771E+06  39129.      652.14      27.173     7.43946E-02
         TOTAL TIME 3.69077E+07 6.15129E+05  10252.      427.17      1.1695    
1
 
 SOLVING FOR HEAD 

 CELL CONVERSIONS FOR ITER.=  2  LAYER=  1  STEP=  8  PERIOD=  2   (ROW,COL)
    WET(  7,  8)   WET( 11,  8)   
    10 ITERATIONS FOR TIME STEP   8 IN STRESS PERIOD    2

 HEAD/DRAWDOWN PRINTOUT FLAG = 1     TOTAL BUDGET PRINTOUT FLAG = 1
 CELL-BY-CELL FLOW TERM FLAG = 1

 OUTPUT FLAGS FOR EACH LAYER:
          HEAD    DRAWDOWN  HEAD  DRAWDOWN
 LAYER  PRINTOUT  PRINTOUT  SAVE    SAVE
 -----------------------------------------
    1       0         0       0       0
    2       0         0       0       0
    3       0         0       0       0
    4       0         0       0       0
    5       1         0       0       0

 --------------------------------------------------------------------------------
 TIME STEP   8     NUMBER OF CONNECTED LAKES IS  2     TOTAL AREA =  0.250000000D+07

 READJUST STAGE OF LAKE   4 TO LAKE   4 SILL ELEVATION BY -0.23 TO  108.00


           SURFACE       SILL   WATER BUDGET  STAGE  CORRECTED   LAKE VOLUME
  LAKE       AREA      ELEVATION   STAGE   CORRECTION  STAGE     CORRECTION
 --------------------------------------------------------------------------------

   3     0.10000E+07 -99999.00    105.00      0.35    105.34    0.34848E+06
   4     0.15000E+07    108.00    108.23     -0.23    108.00   -0.34848E+06

     SECTIONS OF THE LAKE BOTTOM HAVE BECOME DRY.  THE DRYSECTIONS
     LIE ABOVE THE FOLLOWING 19 AQUIFER CELLS (LAYER,ROW,COLUMN):
     (  2,  9,  8)  (  2,  7,  9)  (  2,  8,  9)  (  2, 10,  9)  (  2, 11,  9)
     (  2,  7, 10)  (  2, 11, 10)  (  2,  7, 11)  (  2, 11, 11)  (  2,  7, 12)
     (  2, 11, 12)  (  2,  7, 13)  (  2,  8, 13)  (  2, 10, 13)  (  2, 11, 13)
     (  2,  9, 14)  (  2, 10, 15)  (  2, 10, 16)  (  2,  9, 17)  (

 PERIOD     2     TIME STEP     8     TIME STEP LENGTH  4.3614E+00
 PERIOD TIME  3.1534E+01     TOTAL SIMULATION TIME  4.3153E+02


                 HYDROLOGIC BUDGET SUMMARIES FOR SIMULATED LAKES
     (ALL FLUID FLUXES ARE VOLUMES ADDED TO THE LAKE DURING PRESENT TIME STEP)
     -------------------------------------------------------------------------
 LAKE    STAGE         VOLUME     VOL.CHANGE      PRECIP     EVAPORATION        RUNOFF
   1    99.9720     8.1729E+06    2.2816E+05    1.3913E+05    1.2354E+05    0.0000E+00
   2   107.6763     1.2536E+07    6.0995E+05    1.8972E+05    1.6846E+05    0.0000E+00
   3   105.3449     8.3448E+06    4.1864E+05    5.0592E+04    4.4922E+04    0.0000E+00
   4   108.0000     1.1500E+07    0.0000E+00    7.5888E+04    6.7383E+04    0.0000E+00

            GROUND WATER            SURFACE WATER        WATER
 LAKE    INFLOW     OUTFLOW      INFLOW     OUTFLOW       USE
   1  2.1256E+05  0.0000E+00  0.0000E+00  0.0000E+00  0.0000E+00
   2  6.8257E+05  9.3879E+04  0.0000E+00  0.0000E+00  0.0000E+00
   3  7.3743E+04  9.2573E+03  0.0000E+00  0.0000E+00  0.0000E+00
   4  3.4474E+05  4.7687E+03  0.0000E+00  0.0000E+00  0.0000E+00

      CONNECTED LAKE   TIME-STEP         STAGE-CHANGE          PERCENT
 LAKE    INFLUX      SURFACE AREA   TIME STEP  CUMULATIVE    DISCREPANCY
   1   0.0000E+00     2.7500E+06   8.2966E-02 -1.5028E+01       0.000
   2   0.0000E+00     3.7500E+06   1.6266E-01 -7.3237E+00       0.000
   3   3.4848E+05     1.0000E+06   4.1864E-01 -9.6551E+00       0.000
   4  -3.4848E+05     1.5000E+06   0.0000E+00 -7.0000E+00       0.000
 --------------------------------------------------------------------------------



            CUMULATIVE HYDROLOGIC BUDGET SUMMARIES FOR SIMULATED LAKES
     (ALL FLUID FLUXES ARE SUMS OF VOLUMES ADDED TO THE LAKE SINCE INITIAL TIME)
     ---------------------------------------------------------------------------
 LAKE       PRECIP       EVAP       RUNOFF
   1     1.0059E+06  8.4886E+07  0.0000E+00
   2     9.7627E+05  5.7384E+07  0.0000E+00
   3     3.6579E+05  2.5425E+07  0.0000E+00
   4     5.4869E+05  2.5207E+07  0.0000E+00

            GROUND WATER            SURFACE WATER
 LAKE    INFLOW     OUTFLOW      INFLOW     OUTFLOW
   1  9.9513E+06  1.4874E+06  0.0000E+00  0.0000E+00
   2  3.1399E+07  2.1762E+06  0.0000E+00  0.0000E+00
   3  5.1378E+06  7.4845E+05  0.0000E+00  0.0000E+00
   4  2.1477E+07  4.8388E+05  0.0000E+00  0.0000E+00

         WATER    CONNECTED LAKE   CHANGE       PERCENT
 LAKE     USE         INFLUX       IN VOL.    DISCREPANCY
   1   0.0000E+00   2.0903E+06  -7.3326E+07      0.000
   2   0.0000E+00  -2.7924E+05  -2.7464E+07      0.000
   3   0.0000E+00   5.0143E+06  -1.5655E+07      0.000
   4   0.0000E+00  -6.8341E+06  -1.0500E+07      0.000
 --------------------------------------------------------------------------------


   1 CONNECTED LAKE SET

   2 LAKES:    3  4
1
              HEAD IN LAYER   5 AT END OF TIME STEP   8 IN STRESS PERIOD    2
  ---------------------------------------------------------------------------

          1      2      3      4      5      6      7      8      9     10
 .........................................................................
   1   160.0  158.9  157.3  155.8  154.6  153.9  153.1  152.3  151.5  150.8
   2   160.0  156.6  153.0  150.3  148.7  147.7  146.8  145.8  145.0  144.2
   3   160.0  154.6  148.6  144.4  142.0  140.6  139.3  138.1  137.1  136.3
   4   160.0  153.6  146.0  139.8  136.1  133.9  132.1  130.7  129.5  128.6
   5   160.0  152.9  143.8  135.3  130.0  127.1  124.9  123.2  122.0  121.1
   6   160.0  152.3  141.7  130.2  122.0  118.5  116.2  114.7  113.3  112.4
   7   160.0  152.0  140.4  125.6  108.7  108.0  107.9  107.3  105.0  103.8
   8   160.0  151.9  139.8  124.2  108.2  107.7  107.3  104.7  101.9  100.2
   9   160.0  151.8  139.6  123.8  108.2  107.7  107.5  103.5  100.2  100.0
  10   160.0  151.9  139.8  124.2  108.2  107.7  107.3  104.7  101.9  100.2
  11   160.0  152.0  140.4  125.6  108.7  108.0  107.9  107.3  105.0  103.8
  12   160.0  152.3  141.7  130.2  122.0  118.5  116.2  114.7  113.3  112.4
  13   160.0  152.9  143.8  135.3  130.0  127.1  124.9  123.2  122.0  121.1
  14   160.0  153.6  146.0  139.8  136.1  133.9  132.1  130.7  129.5  128.6
  15   160.0  154.6  148.6  144.4  142.0  140.6  139.3  138.1  137.1  136.3
  16   160.0  156.6  153.0  150.3  148.7  147.7  146.8  145.8  145.0  144.2
  17   160.0  158.9  157.3  155.8  154.6  153.9  153.1  152.3  151.5  150.8
1
              HEAD IN LAYER   5 AT END OF TIME STEP   8 IN STRESS PERIOD    2
  ---------------------------------------------------------------------------

         11     12     13     14     15     16     17     18     19     20
 .........................................................................
   1   150.0  149.2  148.5  147.7  146.9  146.1  145.4  144.6  143.9  142.7
   2   143.4  142.7  141.9  141.2  140.6  139.9  139.3  138.7  138.2  137.7
   3   135.6  134.9  134.4  133.9  133.5  133.2  133.0  132.8  132.8  133.3
   4   128.0  127.6  127.3  127.2  127.3  127.5  127.9  128.5  129.3  130.9
   5   120.6  120.4  120.4  120.7  121.3  122.0  123.1  124.4  126.0  129.0
   6   112.0  112.1  112.7  113.8  114.9  116.2  117.7  119.6  122.0  126.5
   7   103.5  103.7  105.0  107.5  109.0  110.3  112.2  113.9  116.4  124.0
   8   100.1  100.2  101.8  104.2  105.1  105.3  108.1  108.4  108.8  122.1
   9   100.0  100.0  100.2  102.6  104.9  105.1  106.6  108.2  108.6  121.6
  10   100.1  100.2  101.8  104.2  105.1  106.3  108.3  108.5  109.0  122.1
  11   103.4  103.7  104.9  107.4  109.0  110.5  112.3  114.0  116.4  124.0
  12   112.0  112.1  112.7  113.7  114.9  116.1  117.7  119.6  122.0  126.5
  13   120.6  120.4  120.4  120.7  121.3  122.0  123.1  124.4  126.0  129.0
  14   128.0  127.6  127.3  127.2  127.3  127.5  127.9  128.5  129.3  130.9
  15   135.6  134.9  134.4  133.9  133.5  133.2  133.0  132.8  132.8  133.3
  16   143.4  142.7  141.9  141.2  140.6  139.9  139.3  138.7  138.2  137.7
  17   150.0  149.2  148.5  147.7  146.9  146.1  145.4  144.6  143.9  142.7
1
              HEAD IN LAYER   5 AT END OF TIME STEP   8 IN STRESS PERIOD    2
  ---------------------------------------------------------------------------

         21     22
 .................
   1   141.1  140.0
   2   138.3  140.0
   3   136.0  140.0
   4   135.0  140.0
   5   134.4  140.0
   6   133.7  140.0
   7   133.2  140.0
   8   132.9  140.0
   9   132.8  140.0
  10   132.9  140.0
  11   133.2  140.0
  12   133.7  140.0
  13   134.4  140.0
  14   135.0  140.0
  15   136.0  140.0
  16   138.3  140.0
  17   141.1  140.0
1
  VOLUMETRIC BUDGET FOR ENTIRE MODEL AT END OF TIME STEP  8 IN STRESS PERIOD   2
  ------------------------------------------------------------------------------

     CUMULATIVE VOLUMES      L**3       RATES FOR THIS TIME STEP      L**3/T
     ------------------                 ------------------------

           IN:                                      IN:
           ---                                      ---
             STORAGE =    20821042.0000               STORAGE =           0.0000
       CONSTANT HEAD =   823381504.0000         CONSTANT HEAD =     1045776.0000
                  ET =           0.0000                    ET =           0.0000
            RECHARGE =    54336504.0000              RECHARGE =     1708100.0000
     SPECIFIED FLOWS =           0.0000       SPECIFIED FLOWS =           0.0000
       LAKE  SEEPAGE =     4895932.5000         LAKE  SEEPAGE =       24741.0098

            TOTAL IN =   903435008.0000              TOTAL IN =     2778617.0000

          OUT:                                     OUT:
          ----                                     ----
             STORAGE =   545669248.0000               STORAGE =     1947096.3750
       CONSTANT HEAD =           0.0000         CONSTANT HEAD =           0.0000
                  ET =   289811776.0000                    ET =      530327.3125
            RECHARGE =           0.0000              RECHARGE =           0.0000
     SPECIFIED FLOWS =           0.0000       SPECIFIED FLOWS =           0.0000
       LAKE  SEEPAGE =    67964760.0000         LAKE  SEEPAGE =      301193.6875

           TOTAL OUT =   903445760.0000             TOTAL OUT =     2778617.5000

            IN - OUT =      -10752.0000              IN - OUT =          -0.5000

 PERCENT DISCREPANCY =           0.00     PERCENT DISCREPANCY =           0.00






          TIME SUMMARY AT END OF TIME STEP   8 IN STRESS PERIOD    2
                    SECONDS     MINUTES      HOURS       DAYS        YEARS
                    -----------------------------------------------------------
   TIME STEP LENGTH 3.76823E+05  6280.4      104.67      4.3614     1.19408E-02
 STRESS PERIOD TIME 2.72454E+06  45409.      756.82      31.534     8.63354E-02
         TOTAL TIME 3.72845E+07 6.21409E+05  10357.      431.53      1.1815    
1
 
 SOLVING FOR HEAD 
    10 ITERATIONS FOR TIME STEP   9 IN STRESS PERIOD    2

 HEAD/DRAWDOWN PRINTOUT FLAG = 1     TOTAL BUDGET PRINTOUT FLAG = 1
 CELL-BY-CELL FLOW TERM FLAG = 1

 OUTPUT FLAGS FOR EACH LAYER:
          HEAD    DRAWDOWN  HEAD  DRAWDOWN
 LAYER  PRINTOUT  PRINTOUT  SAVE    SAVE
 -----------------------------------------
    1       0         0       0       0
    2       0         0       0       0
    3       0         0       0       0
    4       0         0       0       0
    5       1         0       0       0

 --------------------------------------------------------------------------------
 TIME STEP   9     NUMBER OF CONNECTED LAKES IS  2     TOTAL AREA =  0.250000000D+07

 READJUST STAGE OF LAKE   4 TO LAKE   4 SILL ELEVATION BY -0.25 TO  108.00


           SURFACE       SILL   WATER BUDGET  STAGE  CORRECTED   LAKE VOLUME
  LAKE       AREA      ELEVATION   STAGE   CORRECTION  STAGE     CORRECTION
 --------------------------------------------------------------------------------

   3     0.10000E+07 -99999.00    105.41      0.37    105.78    0.37090E+06
   4     0.15000E+07    108.00    108.25     -0.25    108.00   -0.37090E+06

     SECTIONS OF THE LAKE BOTTOM HAVE BECOME DRY.  THE DRYSECTIONS
     LIE ABOVE THE FOLLOWING 19 AQUIFER CELLS (LAYER,ROW,COLUMN):
     (  2,  9,  8)  (  2,  7,  9)  (  2,  8,  9)  (  2, 10,  9)  (  2, 11,  9)
     (  2,  7, 10)  (  2, 11, 10)  (  2,  7, 11)  (  2, 11, 11)  (  2,  7, 12)
     (  2, 11, 12)  (  2,  7, 13)  (  2,  8, 13)  (  2, 10, 13)  (  2, 11, 13)
     (  2,  9, 14)  (  2, 10, 15)  (  2, 10, 16)  (  2,  9, 17)  (

 PERIOD     2     TIME STEP     9     TIME STEP LENGTH  4.4922E+00
 PERIOD TIME  3.6026E+01     TOTAL SIMULATION TIME  4.3603E+02


                 HYDROLOGIC BUDGET SUMMARIES FOR SIMULATED LAKES
     (ALL FLUID FLUXES ARE VOLUMES ADDED TO THE LAKE DURING PRESENT TIME STEP)
     -------------------------------------------------------------------------
 LAKE    STAGE         VOLUME     VOL.CHANGE      PRECIP     EVAPORATION        RUNOFF
   1   100.0634     8.4242E+06    2.5132E+05    1.4330E+05    1.2724E+05    0.0000E+00
   2   107.8622     1.3233E+07    6.9718E+05    1.9541E+05    1.7351E+05    0.0000E+00
   3   105.7844     8.7843E+06    4.3952E+05    5.2110E+04    4.6270E+04    0.0000E+00
   4   108.0000     1.1500E+07    0.0000E+00    7.8165E+04    6.9405E+04    0.0000E+00

            GROUND WATER            SURFACE WATER        WATER
 LAKE    INFLOW     OUTFLOW      INFLOW     OUTFLOW       USE
   1  2.3526E+05  0.0000E+00  0.0000E+00  0.0000E+00  0.0000E+00
   2  7.1727E+05  4.1989E+04  0.0000E+00  0.0000E+00  0.0000E+00
   3  7.3390E+04  1.0616E+04  0.0000E+00  0.0000E+00  0.0000E+00
   4  3.6556E+05  3.4158E+03  0.0000E+00  0.0000E+00  0.0000E+00

      CONNECTED LAKE   TIME-STEP         STAGE-CHANGE          PERCENT
 LAKE    INFLUX      SURFACE AREA   TIME STEP  CUMULATIVE    DISCREPANCY
   1   0.0000E+00     2.7500E+06   9.1391E-02 -1.4937E+01       0.000
   2   0.0000E+00     3.7500E+06   1.8592E-01 -7.1378E+00       0.000
   3   3.7090E+05     1.0000E+06   4.3952E-01 -9.2156E+00       0.000
   4  -3.7090E+05     1.5000E+06   0.0000E+00 -7.0000E+00       0.000
 --------------------------------------------------------------------------------



            CUMULATIVE HYDROLOGIC BUDGET SUMMARIES FOR SIMULATED LAKES
     (ALL FLUID FLUXES ARE SUMS OF VOLUMES ADDED TO THE LAKE SINCE INITIAL TIME)
     ---------------------------------------------------------------------------
 LAKE       PRECIP       EVAP       RUNOFF
   1     1.1492E+06  8.5014E+07  0.0000E+00
   2     1.1717E+06  5.7557E+07  0.0000E+00
   3     4.1790E+05  2.5471E+07  0.0000E+00
   4     6.2686E+05  2.5277E+07  0.0000E+00

            GROUND WATER            SURFACE WATER
 LAKE    INFLOW     OUTFLOW      INFLOW     OUTFLOW
   1  1.0187E+07  1.4874E+06  0.0000E+00  0.0000E+00
   2  3.2116E+07  2.2182E+06  0.0000E+00  0.0000E+00
   3  5.2112E+06  7.5906E+05  0.0000E+00  0.0000E+00
   4  2.1842E+07  4.8729E+05  0.0000E+00  0.0000E+00

         WATER    CONNECTED LAKE   CHANGE       PERCENT
 LAKE     USE         INFLUX       IN VOL.    DISCREPANCY
   1   0.0000E+00   2.0903E+06  -7.3075E+07      0.000
   2   0.0000E+00  -2.7924E+05  -2.6767E+07      0.000
   3   0.0000E+00   5.3852E+06  -1.5215E+07      0.000
   4   0.0000E+00  -7.2050E+06  -1.0500E+07      0.000
 --------------------------------------------------------------------------------


   1 CONNECTED LAKE SET

   2 LAKES:    3  4
1
              HEAD IN LAYER   5 AT END OF TIME STEP   9 IN STRESS PERIOD    2
  ---------------------------------------------------------------------------

          1      2      3      4      5      6      7      8      9     10
 .........................................................................
   1   160.0  158.9  157.3  155.8  154.6  153.9  153.1  152.3  151.5  150.8
   2   160.0  156.8  153.2  150.6  149.0  147.9  147.0  146.1  145.2  144.4
   3   160.0  154.9  149.0  144.8  142.3  140.9  139.6  138.4  137.5  136.6
   4   160.0  153.8  146.3  140.2  136.4  134.3  132.5  131.0  129.9  129.0
   5   160.0  153.1  144.1  135.6  130.4  127.5  125.3  123.6  122.3  121.4
   6   160.0  152.5  142.0  130.5  122.3  118.8  116.5  115.0  113.6  112.7
   7   160.0  152.2  140.7  125.9  108.8  108.2  108.1  107.6  105.3  104.0
   8   160.0  152.1  140.1  124.4  108.4  107.9  107.8  105.1  102.1  100.3
   9   160.0  152.0  139.9  124.0  108.4  107.9  107.7  103.8  100.3  100.1
  10   160.0  152.1  140.1  124.4  108.4  107.9  107.8  105.1  102.1  100.3
  11   160.0  152.2  140.7  125.9  108.8  108.2  108.1  107.6  105.3  104.0
  12   160.0  152.5  142.0  130.5  122.3  118.8  116.5  115.0  113.6  112.7
  13   160.0  153.1  144.1  135.6  130.4  127.5  125.3  123.6  122.3  121.4
  14   160.0  153.8  146.3  140.2  136.4  134.3  132.5  131.0  129.9  129.0
  15   160.0  154.9  149.0  144.8  142.3  140.9  139.6  138.4  137.5  136.6
  16   160.0  156.8  153.2  150.6  149.0  147.9  147.0  146.1  145.2  144.4
  17   160.0  158.9  157.3  155.8  154.6  153.9  153.1  152.3  151.5  150.8
1
              HEAD IN LAYER   5 AT END OF TIME STEP   9 IN STRESS PERIOD    2
  ---------------------------------------------------------------------------

         11     12     13     14     15     16     17     18     19     20
 .........................................................................
   1   150.0  149.2  148.5  147.7  146.9  146.1  145.4  144.6  143.9  142.7
   2   143.6  142.9  142.2  141.5  140.8  140.2  139.5  139.0  138.5  138.0
   3   135.9  135.2  134.7  134.2  133.8  133.5  133.3  133.1  133.2  133.6
   4   128.3  127.9  127.6  127.5  127.6  127.8  128.2  128.8  129.6  131.2
   5   120.9  120.7  120.7  121.1  121.6  122.3  123.4  124.7  126.3  129.2
   6   112.3  112.4  113.0  114.1  115.2  116.4  118.0  119.8  122.2  126.8
   7   103.7  104.0  105.3  107.8  109.3  110.5  112.5  114.1  116.6  124.2
   8   100.2  100.3  102.0  104.5  105.5  105.7  108.3  108.5  108.9  122.4
   9   100.1  100.1  100.3  102.9  105.3  105.5  106.9  108.2  108.6  121.8
  10   100.2  100.3  102.0  104.5  105.5  106.6  108.6  108.5  109.0  122.4
  11   103.7  104.0  105.2  107.7  109.3  110.8  112.6  114.1  116.6  124.2
  12   112.3  112.4  112.9  114.0  115.1  116.4  118.0  119.8  122.3  126.8
  13   120.9  120.7  120.7  121.0  121.6  122.3  123.4  124.7  126.3  129.2
  14   128.3  127.9  127.6  127.5  127.6  127.8  128.2  128.8  129.6  131.2
  15   135.9  135.2  134.7  134.2  133.8  133.5  133.3  133.1  133.2  133.6
  16   143.6  142.9  142.2  141.5  140.8  140.2  139.5  139.0  138.5  138.0
  17   150.0  149.2  148.5  147.7  146.9  146.1  145.4  144.6  143.9  142.7
1
              HEAD IN LAYER   5 AT END OF TIME STEP   9 IN STRESS PERIOD    2
  ---------------------------------------------------------------------------

         21     22
 .................
   1   141.1  140.0
   2   138.4  140.0
   3   136.2  140.0
   4   135.2  140.0
   5   134.6  140.0
   6   133.9  140.0
   7   133.4  140.0
   8   133.1  140.0
   9   133.0  140.0
  10   133.1  140.0
  11   133.4  140.0
  12   133.9  140.0
  13   134.6  140.0
  14   135.2  140.0
  15   136.2  140.0
  16   138.4  140.0
  17   141.1  140.0
1
  VOLUMETRIC BUDGET FOR ENTIRE MODEL AT END OF TIME STEP  9 IN STRESS PERIOD   2
  ------------------------------------------------------------------------------

     CUMULATIVE VOLUMES      L**3       RATES FOR THIS TIME STEP      L**3/T
     ------------------                 ------------------------

           IN:                                      IN:
           ---                                      ---
             STORAGE =    20821042.0000               STORAGE =           0.0000
       CONSTANT HEAD =   827896768.0000         CONSTANT HEAD =     1005135.8125
                  ET =           0.0000                    ET =           0.0000
            RECHARGE =    62009664.0000              RECHARGE =     1708100.0000
     SPECIFIED FLOWS =           0.0000       SPECIFIED FLOWS =           0.0000
       LAKE  SEEPAGE =     4951953.0000         LAKE  SEEPAGE =       12470.5215

            TOTAL IN =   915679424.0000              TOTAL IN =     2725706.2500

          OUT:                                     OUT:
          ----                                     ----
             STORAGE =   554051008.0000               STORAGE =     1865841.8750
       CONSTANT HEAD =           0.0000         CONSTANT HEAD =           0.0000
                  ET =   292282912.0000                    ET =      550095.1250
            RECHARGE =           0.0000              RECHARGE =           0.0000
     SPECIFIED FLOWS =           0.0000       SPECIFIED FLOWS =           0.0000
       LAKE  SEEPAGE =    69356240.0000         LAKE  SEEPAGE =      309752.9688

           TOTAL OUT =   915690176.0000             TOTAL OUT =     2725690.0000

            IN - OUT =      -10752.0000              IN - OUT =          16.2500

 PERCENT DISCREPANCY =           0.00     PERCENT DISCREPANCY =           0.00






          TIME SUMMARY AT END OF TIME STEP   9 IN STRESS PERIOD    2
                    SECONDS     MINUTES      HOURS       DAYS        YEARS
                    -----------------------------------------------------------
   TIME STEP LENGTH 3.88128E+05  6468.8      107.81      4.4922     1.22990E-02
 STRESS PERIOD TIME 3.11267E+06  51878.      864.63      36.026     9.86344E-02
         TOTAL TIME 3.76727E+07 6.27878E+05  10465.      436.03      1.1938    
1
 
 SOLVING FOR HEAD 
    10 ITERATIONS FOR TIME STEP  10 IN STRESS PERIOD    2

 HEAD/DRAWDOWN PRINTOUT FLAG = 1     TOTAL BUDGET PRINTOUT FLAG = 1
 CELL-BY-CELL FLOW TERM FLAG = 1

 OUTPUT FLAGS FOR EACH LAYER:
          HEAD    DRAWDOWN  HEAD  DRAWDOWN
 LAYER  PRINTOUT  PRINTOUT  SAVE    SAVE
 -----------------------------------------
    1       0         0       0       0
    2       0         0       0       0
    3       0         0       0       0
    4       0         0       0       0
    5       1         0       0       0

 --------------------------------------------------------------------------------
 TIME STEP  10     NUMBER OF CONNECTED LAKES IS  2     TOTAL AREA =  0.250000000D+07

 READJUST STAGE OF LAKE   4 TO LAKE   4 SILL ELEVATION BY -0.26 TO  108.00


           SURFACE       SILL   WATER BUDGET  STAGE  CORRECTED   LAKE VOLUME
  LAKE       AREA      ELEVATION   STAGE   CORRECTION  STAGE     CORRECTION
 --------------------------------------------------------------------------------

   3     0.10000E+07 -99999.00    105.86      0.39    106.25    0.39434E+06
   4     0.15000E+07    108.00    108.26     -0.26    108.00   -0.39434E+06

     SECTIONS OF THE LAKE BOTTOM HAVE BECOME DRY.  THE DRYSECTIONS
     LIE ABOVE THE FOLLOWING 19 AQUIFER CELLS (LAYER,ROW,COLUMN):
     (  2,  9,  8)  (  2,  7,  9)  (  2,  8,  9)  (  2, 10,  9)  (  2, 11,  9)
     (  2,  7, 10)  (  2, 11, 10)  (  2,  7, 11)  (  2, 11, 11)  (  2,  7, 12)
     (  2, 11, 12)  (  2,  7, 13)  (  2,  8, 13)  (  2, 10, 13)  (  2, 11, 13)
     (  2,  9, 14)  (  2, 10, 15)  (  2, 10, 16)  (  2,  9, 17)  (

 PERIOD     2     TIME STEP    10     TIME STEP LENGTH  4.6270E+00
 PERIOD TIME  4.0653E+01     TOTAL SIMULATION TIME  4.4065E+02


                 HYDROLOGIC BUDGET SUMMARIES FOR SIMULATED LAKES
     (ALL FLUID FLUXES ARE VOLUMES ADDED TO THE LAKE DURING PRESENT TIME STEP)
     -------------------------------------------------------------------------
 LAKE    STAGE         VOLUME     VOL.CHANGE      PRECIP     EVAPORATION        RUNOFF
   1   100.1634     8.6993E+06    2.7512E+05    1.4760E+05    1.3106E+05    0.0000E+00
   2   108.0570     1.3963E+07    7.3038E+05    2.0127E+05    1.7872E+05    0.0000E+00
   3   106.2528     9.2527E+06    4.6841E+05    5.3673E+04    4.7658E+04    0.0000E+00
   4   108.0000     1.1500E+07    0.0000E+00    8.0510E+04    7.1487E+04    0.0000E+00

            GROUND WATER            SURFACE WATER        WATER
 LAKE    INFLOW     OUTFLOW      INFLOW     OUTFLOW       USE
   1  2.5858E+05  0.0000E+00  0.0000E+00  0.0000E+00  0.0000E+00
   2  7.4927E+05  4.1439E+04  0.0000E+00  0.0000E+00  0.0000E+00
   3  8.0362E+04  1.2308E+04  0.0000E+00  0.0000E+00  0.0000E+00
   4  3.8759E+05  2.2711E+03  0.0000E+00  0.0000E+00  0.0000E+00

      CONNECTED LAKE   TIME-STEP         STAGE-CHANGE          PERCENT
 LAKE    INFLUX      SURFACE AREA   TIME STEP  CUMULATIVE    DISCREPANCY
   1   0.0000E+00     2.7500E+06   1.0004E-01 -1.4837E+01       0.000
   2   0.0000E+00     3.7500E+06   1.9477E-01 -6.9430E+00       0.000
   3   3.9434E+05     1.0000E+06   4.6841E-01 -8.7472E+00       0.000
   4  -3.9434E+05     1.5000E+06   0.0000E+00 -7.0000E+00       0.000
 --------------------------------------------------------------------------------



            CUMULATIVE HYDROLOGIC BUDGET SUMMARIES FOR SIMULATED LAKES
     (ALL FLUID FLUXES ARE SUMS OF VOLUMES ADDED TO THE LAKE SINCE INITIAL TIME)
     ---------------------------------------------------------------------------
 LAKE       PRECIP       EVAP       RUNOFF
   1     1.2968E+06  8.5145E+07  0.0000E+00
   2     1.3730E+06  5.7736E+07  0.0000E+00
   3     4.7158E+05  2.5518E+07  0.0000E+00
   4     7.0737E+05  2.5348E+07  0.0000E+00

            GROUND WATER            SURFACE WATER
 LAKE    INFLOW     OUTFLOW      INFLOW     OUTFLOW
   1  1.0445E+07  1.4874E+06  0.0000E+00  0.0000E+00
   2  3.2866E+07  2.2596E+06  0.0000E+00  0.0000E+00
   3  5.2916E+06  7.7137E+05  0.0000E+00  0.0000E+00
   4  2.2230E+07  4.8956E+05  0.0000E+00  0.0000E+00

         WATER    CONNECTED LAKE   CHANGE       PERCENT
 LAKE     USE         INFLUX       IN VOL.    DISCREPANCY
   1   0.0000E+00   2.0903E+06  -7.2800E+07      0.000
   2   0.0000E+00  -2.7924E+05  -2.6036E+07      0.000
   3   0.0000E+00   5.7796E+06  -1.4747E+07      0.000
   4   0.0000E+00  -7.5993E+06  -1.0500E+07      0.000
 --------------------------------------------------------------------------------


   1 CONNECTED LAKE SET

   2 LAKES:    3  4
1
              HEAD IN LAYER   5 AT END OF TIME STEP  10 IN STRESS PERIOD    2
  ---------------------------------------------------------------------------

          1      2      3      4      5      6      7      8      9     10
 .........................................................................
   1   160.0  158.9  157.3  155.8  154.6  153.9  153.1  152.3  151.5  150.8
   2   160.0  157.0  153.4  150.8  149.2  148.2  147.2  146.3  145.5  144.6
   3   160.0  155.1  149.3  145.1  142.6  141.2  139.9  138.8  137.8  136.9
   4   160.0  154.0  146.6  140.5  136.8  134.6  132.8  131.4  130.2  129.3
   5   160.0  153.3  144.4  136.0  130.7  127.9  125.6  123.9  122.6  121.8
   6   160.0  152.7  142.3  130.8  122.6  119.1  116.8  115.3  113.9  113.0
   7   160.0  152.4  141.0  126.2  109.0  108.4  108.3  108.0  105.6  104.3
   8   160.0  152.3  140.4  124.7  108.6  108.1  108.0  105.5  102.4  100.4
   9   160.0  152.2  140.2  124.3  108.6  108.1  107.9  104.1  100.4  100.2
  10   160.0  152.3  140.4  124.7  108.6  108.1  108.0  105.5  102.4  100.4
  11   160.0  152.4  141.0  126.2  109.0  108.4  108.3  108.0  105.6  104.3
  12   160.0  152.7  142.3  130.8  122.6  119.1  116.8  115.3  113.9  113.0
  13   160.0  153.3  144.4  136.0  130.7  127.9  125.6  123.9  122.6  121.8
  14   160.0  154.0  146.6  140.5  136.8  134.6  132.8  131.4  130.2  129.3
  15   160.0  155.1  149.3  145.1  142.6  141.2  139.9  138.8  137.8  136.9
  16   160.0  157.0  153.4  150.8  149.2  148.2  147.2  146.3  145.5  144.6
  17   160.0  158.9  157.3  155.8  154.6  153.9  153.1  152.3  151.5  150.8
1
              HEAD IN LAYER   5 AT END OF TIME STEP  10 IN STRESS PERIOD    2
  ---------------------------------------------------------------------------

         11     12     13     14     15     16     17     18     19     20
 .........................................................................
   1   150.0  149.2  148.5  147.7  146.9  146.1  145.4  144.6  143.9  142.7
   2   143.9  143.1  142.4  141.7  141.0  140.4  139.8  139.2  138.7  138.2
   3   136.2  135.5  135.0  134.5  134.1  133.8  133.6  133.4  133.5  133.9
   4   128.7  128.2  128.0  127.9  127.9  128.1  128.5  129.1  129.9  131.5
   5   121.2  121.0  121.0  121.4  121.9  122.7  123.7  125.0  126.6  129.5
   6   112.6  112.7  113.3  114.3  115.4  116.7  118.2  120.1  122.5  127.1
   7   104.0  104.3  105.6  108.1  109.6  110.8  112.7  114.3  116.8  124.5
   8   100.3  100.4  102.3  104.8  106.0  106.1  108.5  108.5  108.9  122.6
   9   100.2  100.2  100.4  103.2  105.8  105.9  107.1  108.3  108.6  122.0
  10   100.3  100.4  102.2  104.8  105.8  107.0  108.8  108.6  109.1  122.6
  11   104.0  104.2  105.5  108.0  109.6  111.1  112.8  114.3  116.8  124.5
  12   112.6  112.6  113.2  114.3  115.4  116.7  118.2  120.1  122.5  127.1
  13   121.2  121.0  121.0  121.4  121.9  122.7  123.7  125.0  126.6  129.5
  14   128.7  128.2  128.0  127.9  127.9  128.1  128.5  129.1  129.9  131.5
  15   136.2  135.5  135.0  134.5  134.1  133.8  133.6  133.4  133.5  133.9
  16   143.9  143.1  142.4  141.7  141.0  140.4  139.8  139.2  138.7  138.2
  17   150.0  149.2  148.5  147.7  146.9  146.1  145.4  144.6  143.9  142.7
1
              HEAD IN LAYER   5 AT END OF TIME STEP  10 IN STRESS PERIOD    2
  ---------------------------------------------------------------------------

         21     22
 .................
   1   141.1  140.0
   2   138.6  140.0
   3   136.5  140.0
   4   135.5  140.0
   5   134.8  140.0
   6   134.1  140.0
   7   133.6  140.0
   8   133.3  140.0
   9   133.2  140.0
  10   133.3  140.0
  11   133.6  140.0
  12   134.1  140.0
  13   134.8  140.0
  14   135.5  140.0
  15   136.5  140.0
  16   138.6  140.0
  17   141.1  140.0
1
  VOLUMETRIC BUDGET FOR ENTIRE MODEL AT END OF TIME STEP 10 IN STRESS PERIOD   2
  ------------------------------------------------------------------------------

     CUMULATIVE VOLUMES      L**3       RATES FOR THIS TIME STEP      L**3/T
     ------------------                 ------------------------

           IN:                                      IN:
           ---                                      ---
             STORAGE =    20821042.0000               STORAGE =           0.0000
       CONSTANT HEAD =   832370752.0000         CONSTANT HEAD =      966927.1875
                  ET =           0.0000                    ET =           0.0000
            RECHARGE =    69913016.0000              RECHARGE =     1708100.0000
     SPECIFIED FLOWS =           0.0000       SPECIFIED FLOWS =           0.0000
       LAKE  SEEPAGE =     5007970.5000         LAKE  SEEPAGE =       12106.6504

            TOTAL IN =   928112768.0000              TOTAL IN =     2687133.7500

          OUT:                                     OUT:
          ----                                     ----
             STORAGE =   562374528.0000               STORAGE =     1798904.8750
       CONSTANT HEAD =           0.0000         CONSTANT HEAD =           0.0000
                  ET =   294916992.0000                    ET =      569282.8750
            RECHARGE =           0.0000              RECHARGE =           0.0000
     SPECIFIED FLOWS =           0.0000       SPECIFIED FLOWS =           0.0000
       LAKE  SEEPAGE =    70832032.0000         LAKE  SEEPAGE =      318953.6875

           TOTAL OUT =   928123520.0000             TOTAL OUT =     2687141.5000

            IN - OUT =      -10752.0000              IN - OUT =          -7.7500

 PERCENT DISCREPANCY =           0.00     PERCENT DISCREPANCY =           0.00






          TIME SUMMARY AT END OF TIME STEP  10 IN STRESS PERIOD    2
                    SECONDS     MINUTES      HOURS       DAYS        YEARS
                    -----------------------------------------------------------
   TIME STEP LENGTH 3.99772E+05  6662.9      111.05      4.6270     1.26680E-02
 STRESS PERIOD TIME 3.51244E+06  58541.      975.68      40.653     0.11130    
         TOTAL TIME 3.80724E+07 6.34541E+05  10576.      440.65      1.2064    
1
 
 SOLVING FOR HEAD 
    10 ITERATIONS FOR TIME STEP  11 IN STRESS PERIOD    2

 HEAD/DRAWDOWN PRINTOUT FLAG = 0     TOTAL BUDGET PRINTOUT FLAG = 0
 CELL-BY-CELL FLOW TERM FLAG = 1

 OUTPUT FLAGS FOR ALL LAYERS ARE THE SAME:
   HEAD    DRAWDOWN  HEAD  DRAWDOWN
 PRINTOUT  PRINTOUT  SAVE    SAVE
 ----------------------------------
     0         0       0       0

 --------------------------------------------------------------------------------
 TIME STEP  11     NUMBER OF CONNECTED LAKES IS  2     TOTAL AREA =  0.250000000D+07

 READJUST STAGE OF LAKE   4 TO LAKE   4 SILL ELEVATION BY -0.28 TO  108.00


           SURFACE       SILL   WATER BUDGET  STAGE  CORRECTED   LAKE VOLUME
  LAKE       AREA      ELEVATION   STAGE   CORRECTION  STAGE     CORRECTION
 --------------------------------------------------------------------------------

   3     0.10000E+07 -99999.00    106.35      0.42    106.77    0.41822E+06
   4     0.15000E+07    108.00    108.28     -0.28    108.00   -0.41822E+06

     SECTIONS OF THE LAKE BOTTOM HAVE BECOME DRY.  THE DRYSECTIONS
     LIE ABOVE THE FOLLOWING 19 AQUIFER CELLS (LAYER,ROW,COLUMN):
     (  2,  9,  8)  (  2,  7,  9)  (  2,  8,  9)  (  2, 10,  9)  (  2, 11,  9)
     (  2,  7, 10)  (  2, 11, 10)  (  2,  7, 11)  (  2, 11, 11)  (  2,  7, 12)
     (  2, 11, 12)  (  2,  7, 13)  (  2,  8, 13)  (  2, 10, 13)  (  2, 11, 13)
     (  2,  9, 14)  (  2, 10, 15)  (  2, 10, 16)  (  2,  9, 17)  (

 PERIOD     2     TIME STEP    11     TIME STEP LENGTH  4.7658E+00
 PERIOD TIME  4.5419E+01     TOTAL SIMULATION TIME  4.4542E+02


                 HYDROLOGIC BUDGET SUMMARIES FOR SIMULATED LAKES
     (ALL FLUID FLUXES ARE VOLUMES ADDED TO THE LAKE DURING PRESENT TIME STEP)
     -------------------------------------------------------------------------
 LAKE    STAGE         VOLUME     VOL.CHANGE      PRECIP     EVAPORATION        RUNOFF
   1   100.2724     8.9989E+06    2.9962E+05    1.5203E+05    1.3499E+05    0.0000E+00
   2   108.2608     1.4728E+07    7.6436E+05    2.0731E+05    1.8408E+05    0.0000E+00
   3   106.7659     9.7658E+06    5.1308E+05    5.5283E+04    4.9088E+04    0.0000E+00
   4   108.0000     1.1500E+07    0.0000E+00    8.2925E+04    7.3632E+04    0.0000E+00

            GROUND WATER            SURFACE WATER        WATER
 LAKE    INFLOW     OUTFLOW      INFLOW     OUTFLOW       USE
   1  2.8258E+05  0.0000E+00  0.0000E+00  0.0000E+00  0.0000E+00
   2  7.8243E+05  4.1307E+04  0.0000E+00  0.0000E+00  0.0000E+00
   3  1.0325E+05  1.4595E+04  0.0000E+00  0.0000E+00  0.0000E+00
   4  4.1054E+05  1.6086E+03  0.0000E+00  0.0000E+00  0.0000E+00

      CONNECTED LAKE   TIME-STEP         STAGE-CHANGE          PERCENT
 LAKE    INFLUX      SURFACE AREA   TIME STEP  CUMULATIVE    DISCREPANCY
   1   0.0000E+00     2.7500E+06   1.0895E-01 -1.4728E+01       0.000
   2   0.0000E+00     3.7500E+06   2.0383E-01 -6.7392E+00       0.000
   3   4.1822E+05     1.0000E+06   5.1308E-01 -8.2341E+00       0.000
   4  -4.1822E+05     1.5000E+06   0.0000E+00 -7.0000E+00       0.000
 --------------------------------------------------------------------------------



            CUMULATIVE HYDROLOGIC BUDGET SUMMARIES FOR SIMULATED LAKES
     (ALL FLUID FLUXES ARE SUMS OF VOLUMES ADDED TO THE LAKE SINCE INITIAL TIME)
     ---------------------------------------------------------------------------
 LAKE       PRECIP       EVAP       RUNOFF
   1     1.4489E+06  8.5280E+07  0.0000E+00
   2     1.5803E+06  5.7920E+07  0.0000E+00
   3     5.2686E+05  2.5568E+07  0.0000E+00
   4     7.9029E+05  2.5422E+07  0.0000E+00

            GROUND WATER            SURFACE WATER
 LAKE    INFLOW     OUTFLOW      INFLOW     OUTFLOW
   1  1.0728E+07  1.4874E+06  0.0000E+00  0.0000E+00
   2  3.3648E+07  2.3009E+06  0.0000E+00  0.0000E+00
   3  5.3949E+06  7.8596E+05  0.0000E+00  0.0000E+00
   4  2.2640E+07  4.9117E+05  0.0000E+00  0.0000E+00

         WATER    CONNECTED LAKE   CHANGE       PERCENT
 LAKE     USE         INFLUX       IN VOL.    DISCREPANCY
   1   0.0000E+00   2.0903E+06  -7.2500E+07      0.000
   2   0.0000E+00  -2.7924E+05  -2.5272E+07      0.000
   3   0.0000E+00   6.1978E+06  -1.4234E+07      0.000
   4   0.0000E+00  -8.0176E+06  -1.0500E+07      0.000
 --------------------------------------------------------------------------------


   1 CONNECTED LAKE SET

   2 LAKES:    3  4
 
 SOLVING FOR HEAD 
    10 ITERATIONS FOR TIME STEP  12 IN STRESS PERIOD    2

 HEAD/DRAWDOWN PRINTOUT FLAG = 0     TOTAL BUDGET PRINTOUT FLAG = 0
 CELL-BY-CELL FLOW TERM FLAG = 1

 OUTPUT FLAGS FOR ALL LAYERS ARE THE SAME:
   HEAD    DRAWDOWN  HEAD  DRAWDOWN
 PRINTOUT  PRINTOUT  SAVE    SAVE
 ----------------------------------
     0         0       0       0

 --------------------------------------------------------------------------------
 TIME STEP  12     NUMBER OF CONNECTED LAKES IS  2     TOTAL AREA =  0.272303850D+07

 READJUST STAGE OF LAKE   4 TO LAKE   4 SILL ELEVATION BY -0.30 TO  108.00


           SURFACE       SILL   WATER BUDGET  STAGE  CORRECTED   LAKE VOLUME
  LAKE       AREA      ELEVATION   STAGE   CORRECTION  STAGE     CORRECTION
 --------------------------------------------------------------------------------

   3     0.12230E+07 -99999.00    106.87      0.36    107.23    0.53245E+06
   4     0.15000E+07    108.00    108.30     -0.30    108.00   -0.44263E+06

          WARNING -- SUM OF INTERLAKE FLUXES     89821. EXCEEDS10**6 OF THE TOTAL VOLUME


     SECTIONS OF THE LAKE BOTTOM HAVE BECOME DRY.  THE DRYSECTIONS
     LIE ABOVE THE FOLLOWING 16 AQUIFER CELLS (LAYER,ROW,COLUMN):
     (  2,  9,  8)  (  2,  7,  9)  (  2,  8,  9)  (  2, 10,  9)  (  2, 11,  9)
     (  2,  7, 10)  (  2, 11, 10)  (  2,  7, 11)  (  2, 11, 11)  (  2,  7, 12)
     (  2, 11, 12)  (  2,  7, 13)  (  2,  8, 13)  (  2, 10, 13)  (  2, 11, 13)
     (  2,  9, 14)  (

 PERIOD     2     TIME STEP    12     TIME STEP LENGTH  4.9088E+00
 PERIOD TIME  5.0328E+01     TOTAL SIMULATION TIME  4.5033E+02


                 HYDROLOGIC BUDGET SUMMARIES FOR SIMULATED LAKES
     (ALL FLUID FLUXES ARE VOLUMES ADDED TO THE LAKE DURING PRESENT TIME STEP)
     -------------------------------------------------------------------------
 LAKE    STAGE         VOLUME     VOL.CHANGE      PRECIP     EVAPORATION        RUNOFF
   1   100.3905     9.3238E+06    3.2489E+05    1.5659E+05    1.3904E+05    0.0000E+00
   2   108.4739     1.5527E+07    7.9924E+05    2.1353E+05    1.8960E+05    0.0000E+00
   3   107.2275     1.0398E+07    6.3213E+05    6.9642E+04    6.1837E+04    0.0000E+00
   4   108.0000     1.1500E+07    0.0000E+00    8.5413E+04    7.5840E+04    0.0000E+00

            GROUND WATER            SURFACE WATER        WATER
 LAKE    INFLOW     OUTFLOW      INFLOW     OUTFLOW       USE
   1  3.0734E+05  0.0000E+00  0.0000E+00  0.0000E+00  0.0000E+00
   2  8.1680E+05  4.1493E+04  0.0000E+00  0.0000E+00  0.0000E+00
   3  1.0929E+05  1.7410E+04  0.0000E+00  0.0000E+00  0.0000E+00
   4  4.3434E+05  1.2807E+03  0.0000E+00  0.0000E+00  0.0000E+00

      CONNECTED LAKE   TIME-STEP         STAGE-CHANGE          PERCENT
 LAKE    INFLUX      SURFACE AREA   TIME STEP  CUMULATIVE    DISCREPANCY
   1   0.0000E+00     2.7500E+06   1.1814E-01 -1.4609E+01       0.000
   2   0.0000E+00     3.7500E+06   2.1313E-01 -6.5261E+00       0.000
   3   5.3245E+05     1.2230E+06   4.6160E-01 -7.7725E+00       0.000
   4  -4.4263E+05     1.5000E+06   0.0000E+00 -7.0000E+00       0.000
 --------------------------------------------------------------------------------



            CUMULATIVE HYDROLOGIC BUDGET SUMMARIES FOR SIMULATED LAKES
     (ALL FLUID FLUXES ARE SUMS OF VOLUMES ADDED TO THE LAKE SINCE INITIAL TIME)
     ---------------------------------------------------------------------------
 LAKE       PRECIP       EVAP       RUNOFF
   1     1.6055E+06  8.5419E+07  0.0000E+00
   2     1.7938E+06  5.8110E+07  0.0000E+00
   3     5.9650E+05  2.5629E+07  0.0000E+00
   4     8.7570E+05  2.5498E+07  0.0000E+00

            GROUND WATER            SURFACE WATER
 LAKE    INFLOW     OUTFLOW      INFLOW     OUTFLOW
   1  1.1035E+07  1.4874E+06  0.0000E+00  0.0000E+00
   2  3.4465E+07  2.3424E+06  0.0000E+00  0.0000E+00
   3  5.5041E+06  8.0337E+05  0.0000E+00  0.0000E+00
   4  2.3075E+07  4.9245E+05  0.0000E+00  0.0000E+00

         WATER    CONNECTED LAKE   CHANGE       PERCENT
 LAKE     USE         INFLUX       IN VOL.    DISCREPANCY
   1   0.0000E+00   2.0903E+06  -7.2175E+07      0.000
   2   0.0000E+00  -2.7924E+05  -2.4473E+07      0.000
   3   0.0000E+00   6.7303E+06  -1.3602E+07      0.000
   4   0.0000E+00  -8.4602E+06  -1.0500E+07      0.000
 --------------------------------------------------------------------------------


   1 CONNECTED LAKE SET

   2 LAKES:    3  4
 
 SOLVING FOR HEAD 
    10 ITERATIONS FOR TIME STEP  13 IN STRESS PERIOD    2

 HEAD/DRAWDOWN PRINTOUT FLAG = 0     TOTAL BUDGET PRINTOUT FLAG = 0
 CELL-BY-CELL FLOW TERM FLAG = 1

 OUTPUT FLAGS FOR ALL LAYERS ARE THE SAME:
   HEAD    DRAWDOWN  HEAD  DRAWDOWN
 PRINTOUT  PRINTOUT  SAVE    SAVE
 ----------------------------------
     0         0       0       0

 --------------------------------------------------------------------------------
 TIME STEP  13     NUMBER OF CONNECTED LAKES IS  2     TOTAL AREA =  0.325000000D+07

 READJUST STAGE OF LAKE   4 TO LAKE   4 SILL ELEVATION BY -0.31 TO  108.00


           SURFACE       SILL   WATER BUDGET  STAGE  CORRECTED   LAKE VOLUME
  LAKE       AREA      ELEVATION   STAGE   CORRECTION  STAGE     CORRECTION
 --------------------------------------------------------------------------------

   3     0.17500E+07 -99999.00    107.29      0.27    107.56    0.46858E+06
   4     0.15000E+07    108.00    108.31     -0.31    108.00   -0.46858E+06

     SECTIONS OF THE LAKE BOTTOM HAVE BECOME DRY.  THE DRYSECTIONS
     LIE ABOVE THE FOLLOWING 16 AQUIFER CELLS (LAYER,ROW,COLUMN):
     (  2,  9,  8)  (  2,  7,  9)  (  2,  8,  9)  (  2, 10,  9)  (  2, 11,  9)
     (  2,  7, 10)  (  2, 11, 10)  (  2,  7, 11)  (  2, 11, 11)  (  2,  7, 12)
     (  2, 11, 12)  (  2,  7, 13)  (  2,  8, 13)  (  2, 10, 13)  (  2, 11, 13)
     (  2,  9, 14)  (

 PERIOD     2     TIME STEP    13     TIME STEP LENGTH  5.0560E+00
 PERIOD TIME  5.5384E+01     TOTAL SIMULATION TIME  4.5538E+02


                 HYDROLOGIC BUDGET SUMMARIES FOR SIMULATED LAKES
     (ALL FLUID FLUXES ARE VOLUMES ADDED TO THE LAKE DURING PRESENT TIME STEP)
     -------------------------------------------------------------------------
 LAKE    STAGE         VOLUME     VOL.CHANGE      PRECIP     EVAPORATION        RUNOFF
   1   100.5182     9.6749E+06    3.5103E+05    1.6129E+05    1.4321E+05    0.0000E+00
   2   108.6966     1.6362E+07    8.3511E+05    2.1994E+05    1.9529E+05    0.0000E+00
   3   107.5561     1.0973E+07    5.7513E+05    1.0264E+05    9.1135E+04    0.0000E+00
   4   108.0000     1.1500E+07    1.0000E+00    8.7975E+04    7.8116E+04    0.0000E+00

            GROUND WATER            SURFACE WATER        WATER
 LAKE    INFLOW     OUTFLOW      INFLOW     OUTFLOW       USE
   1  3.3295E+05  0.0000E+00  0.0000E+00  0.0000E+00  0.0000E+00
   2  8.5242E+05  4.1957E+04  0.0000E+00  0.0000E+00  0.0000E+00
   3  1.2126E+05  2.6220E+04  0.0000E+00  0.0000E+00  0.0000E+00
   4  4.5985E+05  1.1301E+03  0.0000E+00  0.0000E+00  0.0000E+00

      CONNECTED LAKE   TIME-STEP         STAGE-CHANGE          PERCENT
 LAKE    INFLUX      SURFACE AREA   TIME STEP  CUMULATIVE    DISCREPANCY
   1   0.0000E+00     2.7500E+06   1.2765E-01 -1.4482E+01       0.000
   2   0.0000E+00     3.7500E+06   2.2270E-01 -6.3034E+00       0.000
   3   4.6858E+05     1.7500E+06   3.2865E-01 -7.4439E+00       0.000
   4  -4.6858E+05     1.5000E+06   0.0000E+00 -7.0000E+00       0.000
 --------------------------------------------------------------------------------



            CUMULATIVE HYDROLOGIC BUDGET SUMMARIES FOR SIMULATED LAKES
     (ALL FLUID FLUXES ARE SUMS OF VOLUMES ADDED TO THE LAKE SINCE INITIAL TIME)
     ---------------------------------------------------------------------------
 LAKE       PRECIP       EVAP       RUNOFF
   1     1.7667E+06  8.5562E+07  0.0000E+00
   2     2.0137E+06  5.8305E+07  0.0000E+00
   3     6.9914E+05  2.5721E+07  0.0000E+00
   4     9.6368E+05  2.5576E+07  0.0000E+00

            GROUND WATER            SURFACE WATER
 LAKE    INFLOW     OUTFLOW      INFLOW     OUTFLOW
   1  1.1368E+07  1.4874E+06  0.0000E+00  0.0000E+00
   2  3.5317E+07  2.3844E+06  0.0000E+00  0.0000E+00
   3  5.6254E+06  8.2959E+05  0.0000E+00  0.0000E+00
   4  2.3534E+07  4.9358E+05  0.0000E+00  0.0000E+00

         WATER    CONNECTED LAKE   CHANGE       PERCENT
 LAKE     USE         INFLUX       IN VOL.    DISCREPANCY
   1   0.0000E+00   2.0903E+06  -7.1824E+07      0.000
   2   0.0000E+00  -2.7924E+05  -2.3637E+07      0.000
   3   0.0000E+00   7.1988E+06  -1.3027E+07      0.000
   4   0.0000E+00  -8.9288E+06  -1.0500E+07      0.000
 --------------------------------------------------------------------------------


   1 CONNECTED LAKE SET

   2 LAKES:    3  4
 
 SOLVING FOR HEAD 
    10 ITERATIONS FOR TIME STEP  14 IN STRESS PERIOD    2

 HEAD/DRAWDOWN PRINTOUT FLAG = 0     TOTAL BUDGET PRINTOUT FLAG = 0
 CELL-BY-CELL FLOW TERM FLAG = 1

 OUTPUT FLAGS FOR ALL LAYERS ARE THE SAME:
   HEAD    DRAWDOWN  HEAD  DRAWDOWN
 PRINTOUT  PRINTOUT  SAVE    SAVE
 ----------------------------------
     0         0       0       0

 --------------------------------------------------------------------------------
 TIME STEP  14     NUMBER OF CONNECTED LAKES IS  2     TOTAL AREA =  0.325000000D+07

 READJUST STAGE OF LAKE   4 TO LAKE   4 SILL ELEVATION BY -0.33 TO  108.00


           SURFACE       SILL   WATER BUDGET  STAGE  CORRECTED   LAKE VOLUME
  LAKE       AREA      ELEVATION   STAGE   CORRECTION  STAGE     CORRECTION
 --------------------------------------------------------------------------------

   3     0.17500E+07 -99999.00    107.63      0.28    107.91    0.49680E+06
   4     0.15000E+07    108.00    108.33     -0.33    108.00   -0.49680E+06

     SECTIONS OF THE LAKE BOTTOM HAVE BECOME DRY.  THE DRYSECTIONS
     LIE ABOVE THE FOLLOWING 16 AQUIFER CELLS (LAYER,ROW,COLUMN):
     (  2,  9,  8)  (  2,  7,  9)  (  2,  8,  9)  (  2, 10,  9)  (  2, 11,  9)
     (  2,  7, 10)  (  2, 11, 10)  (  2,  7, 11)  (  2, 11, 11)  (  2,  7, 12)
     (  2, 11, 12)  (  2,  7, 13)  (  2,  8, 13)  (  2, 10, 13)  (  2, 11, 13)
     (  2,  9, 14)  (

 PERIOD     2     TIME STEP    14     TIME STEP LENGTH  5.2077E+00
 PERIOD TIME  6.0592E+01     TOTAL SIMULATION TIME  4.6059E+02


                 HYDROLOGIC BUDGET SUMMARIES FOR SIMULATED LAKES
     (ALL FLUID FLUXES ARE VOLUMES ADDED TO THE LAKE DURING PRESENT TIME STEP)
     -------------------------------------------------------------------------
 LAKE    STAGE         VOLUME     VOL.CHANGE      PRECIP     EVAPORATION        RUNOFF
   1   100.6557     1.0053E+07    3.7815E+05    1.6613E+05    1.4751E+05    0.0000E+00
   2   108.9292     1.7234E+07    8.7198E+05    2.2654E+05    2.0115E+05    0.0000E+00
   3   107.9122     1.1596E+07    6.2316E+05    1.0572E+05    9.3869E+04    0.0000E+00
   4   108.0000     1.1500E+07    0.0000E+00    9.0614E+04    8.0459E+04    0.0000E+00

            GROUND WATER            SURFACE WATER        WATER
 LAKE    INFLOW     OUTFLOW      INFLOW     OUTFLOW       USE
   1  3.5954E+05  0.0000E+00  0.0000E+00  0.0000E+00  0.0000E+00
   2  8.8928E+05  4.2690E+04  0.0000E+00  0.0000E+00  0.0000E+00
   3  1.3236E+05  1.7853E+04  0.0000E+00  0.0000E+00  0.0000E+00
   4  4.8739E+05  7.4060E+02  0.0000E+00  0.0000E+00  0.0000E+00

      CONNECTED LAKE   TIME-STEP         STAGE-CHANGE          PERCENT
 LAKE    INFLUX      SURFACE AREA   TIME STEP  CUMULATIVE    DISCREPANCY
   1   0.0000E+00     2.7500E+06   1.3751E-01 -1.4344E+01       0.000
   2   0.0000E+00     3.7500E+06   2.3253E-01 -6.0708E+00       0.000
   3   4.9680E+05     1.7500E+06   3.5610E-01 -7.0878E+00       0.000
   4  -4.9680E+05     1.5000E+06   0.0000E+00 -7.0000E+00       0.000
 --------------------------------------------------------------------------------



            CUMULATIVE HYDROLOGIC BUDGET SUMMARIES FOR SIMULATED LAKES
     (ALL FLUID FLUXES ARE SUMS OF VOLUMES ADDED TO THE LAKE SINCE INITIAL TIME)
     ---------------------------------------------------------------------------
 LAKE       PRECIP       EVAP       RUNOFF
   1     1.9329E+06  8.5709E+07  0.0000E+00
   2     2.2403E+06  5.8506E+07  0.0000E+00
   3     8.0486E+05  2.5814E+07  0.0000E+00
   4     1.0543E+06  2.5656E+07  0.0000E+00

            GROUND WATER            SURFACE WATER
 LAKE    INFLOW     OUTFLOW      INFLOW     OUTFLOW
   1  1.1728E+07  1.4874E+06  0.0000E+00  0.0000E+00
   2  3.6207E+07  2.4271E+06  0.0000E+00  0.0000E+00
   3  5.7578E+06  8.4745E+05  0.0000E+00  0.0000E+00
   4  2.4022E+07  4.9432E+05  0.0000E+00  0.0000E+00

         WATER    CONNECTED LAKE   CHANGE       PERCENT
 LAKE     USE         INFLUX       IN VOL.    DISCREPANCY
   1   0.0000E+00   2.0903E+06  -7.1446E+07      0.000
   2   0.0000E+00  -2.7924E+05  -2.2766E+07      0.000
   3   0.0000E+00   7.6956E+06  -1.2404E+07      0.000
   4   0.0000E+00  -9.4256E+06  -1.0500E+07      0.000
 --------------------------------------------------------------------------------


   1 CONNECTED LAKE SET

   2 LAKES:    3  4
 
 SOLVING FOR HEAD 
    22 ITERATIONS FOR TIME STEP  15 IN STRESS PERIOD    2

 HEAD/DRAWDOWN PRINTOUT FLAG = 0     TOTAL BUDGET PRINTOUT FLAG = 0
 CELL-BY-CELL FLOW TERM FLAG = 1

 OUTPUT FLAGS FOR ALL LAYERS ARE THE SAME:
   HEAD    DRAWDOWN  HEAD  DRAWDOWN
 PRINTOUT  PRINTOUT  SAVE    SAVE
 ----------------------------------
     0         0       0       0

 --------------------------------------------------------------------------------
 TIME STEP  15     NUMBER OF CONNECTED LAKES IS  2     TOTAL AREA =  0.325000000D+07



           SURFACE       SILL   WATER BUDGET  STAGE  CORRECTED   LAKE VOLUME
  LAKE       AREA      ELEVATION   STAGE   CORRECTION  STAGE     CORRECTION
 --------------------------------------------------------------------------------

   3     0.17500E+07 -99999.00    107.98      0.17    108.15    0.29670E+06
 --------------------------------------------------------------------------------

   4     0.15000E+07    108.00    108.35     -0.20    108.15   -0.29670E+06

     SECTIONS OF THE LAKE BOTTOM HAVE BECOME DRY.  THE DRYSECTIONS
     LIE ABOVE THE FOLLOWING 16 AQUIFER CELLS (LAYER,ROW,COLUMN):
     (  2,  9,  8)  (  2,  7,  9)  (  2,  8,  9)  (  2, 10,  9)  (  2, 11,  9)
     (  2,  7, 10)  (  2, 11, 10)  (  2,  7, 11)  (  2, 11, 11)  (  2,  7, 12)
     (  2, 11, 12)  (  2,  7, 13)  (  2,  8, 13)  (  2, 10, 13)  (  2, 11, 13)
     (  2,  9, 14)  (

 PERIOD     2     TIME STEP    15     TIME STEP LENGTH  5.3639E+00
 PERIOD TIME  6.5955E+01     TOTAL SIMULATION TIME  4.6596E+02


                 HYDROLOGIC BUDGET SUMMARIES FOR SIMULATED LAKES
     (ALL FLUID FLUXES ARE VOLUMES ADDED TO THE LAKE DURING PRESENT TIME STEP)
     -------------------------------------------------------------------------
 LAKE    STAGE         VOLUME     VOL.CHANGE      PRECIP     EVAPORATION        RUNOFF
   1   100.8132     1.0486E+07    4.3323E+05    1.7111E+05    1.5193E+05    0.0000E+00
   2   109.1718     1.8144E+07    9.1000E+05    2.3333E+05    2.0718E+05    0.0000E+00
   3   108.1533     1.2018E+07    4.2182E+05    1.0889E+05    9.6685E+04    0.0000E+00
   4   108.1533     1.1730E+07    2.2988E+05    9.3333E+04    8.2873E+04    0.0000E+00

            GROUND WATER            SURFACE WATER        WATER
 LAKE    INFLOW     OUTFLOW      INFLOW     OUTFLOW       USE
   1  4.1405E+05  0.0000E+00  0.0000E+00  0.0000E+00  0.0000E+00
   2  9.2751E+05  4.3657E+04  0.0000E+00  0.0000E+00  0.0000E+00
   3  1.3185E+05  1.8933E+04  0.0000E+00  0.0000E+00  0.0000E+00
   4  5.1643E+05  3.0629E+02  0.0000E+00  0.0000E+00  0.0000E+00

      CONNECTED LAKE   TIME-STEP         STAGE-CHANGE          PERCENT
 LAKE    INFLUX      SURFACE AREA   TIME STEP  CUMULATIVE    DISCREPANCY
   1   0.0000E+00     2.7500E+06   1.5754E-01 -1.4187E+01       0.000
   2   0.0000E+00     3.7500E+06   2.4267E-01 -5.8282E+00       0.000
   3   2.9670E+05     1.7500E+06   2.4104E-01 -6.8467E+00       0.000
   4  -2.9670E+05     1.5000E+06   1.5326E-01 -6.8467E+00       0.000
 --------------------------------------------------------------------------------



            CUMULATIVE HYDROLOGIC BUDGET SUMMARIES FOR SIMULATED LAKES
     (ALL FLUID FLUXES ARE SUMS OF VOLUMES ADDED TO THE LAKE SINCE INITIAL TIME)
     ---------------------------------------------------------------------------
 LAKE       PRECIP       EVAP       RUNOFF
   1     2.1040E+06  8.5861E+07  0.0000E+00
   2     2.4736E+06  5.8713E+07  0.0000E+00
   3     9.1374E+05  2.5911E+07  0.0000E+00
   4     1.1476E+06  2.5739E+07  0.0000E+00

            GROUND WATER            SURFACE WATER
 LAKE    INFLOW     OUTFLOW      INFLOW     OUTFLOW
   1  1.2142E+07  1.4874E+06  0.0000E+00  0.0000E+00
   2  3.7134E+07  2.4707E+06  0.0000E+00  0.0000E+00
   3  5.8896E+06  8.6638E+05  0.0000E+00  0.0000E+00
   4  2.4538E+07  4.9463E+05  0.0000E+00  0.0000E+00

         WATER    CONNECTED LAKE   CHANGE       PERCENT
 LAKE     USE         INFLUX       IN VOL.    DISCREPANCY
   1   0.0000E+00   2.0903E+06  -7.1013E+07      0.000
   2   0.0000E+00  -2.7924E+05  -2.1856E+07      0.000
   3   0.0000E+00   7.9923E+06  -1.1982E+07      0.000
   4   0.0000E+00  -9.7223E+06  -1.0270E+07      0.000
 --------------------------------------------------------------------------------


   1 CONNECTED LAKE SET

   2 LAKES:    3  4
 
 SOLVING FOR HEAD 

 CELL CONVERSIONS FOR ITER.=  3  LAYER=  1  STEP= 16  PERIOD=  2   (ROW,COL)
    WET(  8,  8)   WET( 10,  8)   
    12 ITERATIONS FOR TIME STEP  16 IN STRESS PERIOD    2

 HEAD/DRAWDOWN PRINTOUT FLAG = 0     TOTAL BUDGET PRINTOUT FLAG = 0
 CELL-BY-CELL FLOW TERM FLAG = 1

 OUTPUT FLAGS FOR ALL LAYERS ARE THE SAME:
   HEAD    DRAWDOWN  HEAD  DRAWDOWN
 PRINTOUT  PRINTOUT  SAVE    SAVE
 ----------------------------------
     0         0       0       0

 --------------------------------------------------------------------------------
 TIME STEP  16     NUMBER OF CONNECTED LAKES IS  2     TOTAL AREA =  0.325000000D+07



           SURFACE       SILL   WATER BUDGET  STAGE  CORRECTED   LAKE VOLUME
  LAKE       AREA      ELEVATION   STAGE   CORRECTION  STAGE     CORRECTION
 --------------------------------------------------------------------------------

   3     0.17500E+07 -99999.00    108.23      0.13    108.36    0.23377E+06
 --------------------------------------------------------------------------------

   4     0.15000E+07    108.00    108.52     -0.16    108.36   -0.23377E+06

     SECTIONS OF THE LAKE BOTTOM HAVE BECOME DRY.  THE DRYSECTIONS
     LIE ABOVE THE FOLLOWING 16 AQUIFER CELLS (LAYER,ROW,COLUMN):
     (  2,  9,  8)  (  2,  7,  9)  (  2,  8,  9)  (  2, 10,  9)  (  2, 11,  9)
     (  2,  7, 10)  (  2, 11, 10)  (  2,  7, 11)  (  2, 11, 11)  (  2,  7, 12)
     (  2, 11, 12)  (  2,  7, 13)  (  2,  8, 13)  (  2, 10, 13)  (  2, 11, 13)
     (  2,  9, 14)  (

 PERIOD     2     TIME STEP    16     TIME STEP LENGTH  5.5249E+00
 PERIOD TIME  7.1480E+01     TOTAL SIMULATION TIME  4.7148E+02


                 HYDROLOGIC BUDGET SUMMARIES FOR SIMULATED LAKES
     (ALL FLUID FLUXES ARE VOLUMES ADDED TO THE LAKE DURING PRESENT TIME STEP)
     -------------------------------------------------------------------------
 LAKE    STAGE         VOLUME     VOL.CHANGE      PRECIP     EVAPORATION        RUNOFF
   1   100.9974     1.0993E+07    5.0664E+05    1.7624E+05    1.5649E+05    0.0000E+00
   2   109.4248     1.9093E+07    9.4869E+05    2.4033E+05    2.1340E+05    0.0000E+00
   3   108.3626     1.2384E+07    3.6637E+05    1.1215E+05    9.9586E+04    0.0000E+00
   4   108.3626     1.2044E+07    3.1403E+05    9.6133E+04    8.5359E+04    0.0000E+00

            GROUND WATER            SURFACE WATER        WATER
 LAKE    INFLOW     OUTFLOW      INFLOW     OUTFLOW       USE
   1  4.8689E+05  0.0000E+00  0.0000E+00  0.0000E+00  0.0000E+00
   2  9.6672E+05  4.4963E+04  0.0000E+00  0.0000E+00  0.0000E+00
   3  1.3932E+05  1.9287E+04  0.0000E+00  0.0000E+00  0.0000E+00
   4  5.3723E+05  2.0427E+02  0.0000E+00  0.0000E+00  0.0000E+00

      CONNECTED LAKE   TIME-STEP         STAGE-CHANGE          PERCENT
 LAKE    INFLUX      SURFACE AREA   TIME STEP  CUMULATIVE    DISCREPANCY
   1   0.0000E+00     2.7500E+06   1.8424E-01 -1.4003E+01       0.000
   2   0.0000E+00     3.7500E+06   2.5298E-01 -5.5752E+00       0.000
   3   2.3377E+05     1.7500E+06   2.0936E-01 -6.6374E+00       0.000
   4  -2.3377E+05     1.5000E+06   2.0936E-01 -6.6374E+00       0.000
 --------------------------------------------------------------------------------



            CUMULATIVE HYDROLOGIC BUDGET SUMMARIES FOR SIMULATED LAKES
     (ALL FLUID FLUXES ARE SUMS OF VOLUMES ADDED TO THE LAKE SINCE INITIAL TIME)
     ---------------------------------------------------------------------------
 LAKE       PRECIP       EVAP       RUNOFF
   1     2.2802E+06  8.6018E+07  0.0000E+00
   2     2.7139E+06  5.8927E+07  0.0000E+00
   3     1.0259E+06  2.6011E+07  0.0000E+00
   4     1.2438E+06  2.5824E+07  0.0000E+00

            GROUND WATER            SURFACE WATER
 LAKE    INFLOW     OUTFLOW      INFLOW     OUTFLOW
   1  1.2628E+07  1.4874E+06  0.0000E+00  0.0000E+00
   2  3.8101E+07  2.5157E+06  0.0000E+00  0.0000E+00
   3  6.0289E+06  8.8567E+05  0.0000E+00  0.0000E+00
   4  2.5075E+07  4.9483E+05  0.0000E+00  0.0000E+00

         WATER    CONNECTED LAKE   CHANGE       PERCENT
 LAKE     USE         INFLUX       IN VOL.    DISCREPANCY
   1   0.0000E+00   2.0903E+06  -7.0506E+07      0.000
   2   0.0000E+00  -2.7924E+05  -2.0907E+07      0.000
   3   0.0000E+00   8.2261E+06  -1.1615E+07      0.000
   4   0.0000E+00  -9.9560E+06  -9.9560E+06      0.000
 --------------------------------------------------------------------------------


   1 CONNECTED LAKE SET

   2 LAKES:    3  4
 
 SOLVING FOR HEAD 
    12 ITERATIONS FOR TIME STEP  17 IN STRESS PERIOD    2

 HEAD/DRAWDOWN PRINTOUT FLAG = 0     TOTAL BUDGET PRINTOUT FLAG = 0
 CELL-BY-CELL FLOW TERM FLAG = 1

 OUTPUT FLAGS FOR ALL LAYERS ARE THE SAME:
   HEAD    DRAWDOWN  HEAD  DRAWDOWN
 PRINTOUT  PRINTOUT  SAVE    SAVE
 ----------------------------------
     0         0       0       0

 --------------------------------------------------------------------------------
 TIME STEP  17     NUMBER OF CONNECTED LAKES IS  2     TOTAL AREA =  0.325000000D+07



           SURFACE       SILL   WATER BUDGET  STAGE  CORRECTED   LAKE VOLUME
  LAKE       AREA      ELEVATION   STAGE   CORRECTION  STAGE     CORRECTION
 --------------------------------------------------------------------------------

   3     0.17500E+07 -99999.00    108.44      0.14    108.58    0.23914E+06
 --------------------------------------------------------------------------------

   4     0.15000E+07    108.00    108.74     -0.16    108.58   -0.23914E+06

     SECTIONS OF THE LAKE BOTTOM HAVE BECOME DRY.  THE DRYSECTIONS
     LIE ABOVE THE FOLLOWING 16 AQUIFER CELLS (LAYER,ROW,COLUMN):
     (  2,  9,  8)  (  2,  7,  9)  (  2,  8,  9)  (  2, 10,  9)  (  2, 11,  9)
     (  2,  7, 10)  (  2, 11, 10)  (  2,  7, 11)  (  2, 11, 11)  (  2,  7, 12)
     (  2, 11, 12)  (  2,  7, 13)  (  2,  8, 13)  (  2, 10, 13)  (  2, 11, 13)
     (  2,  9, 14)  (

 PERIOD     2     TIME STEP    17     TIME STEP LENGTH  5.6906E+00
 PERIOD TIME  7.7171E+01     TOTAL SIMULATION TIME  4.7717E+02


                 HYDROLOGIC BUDGET SUMMARIES FOR SIMULATED LAKES
     (ALL FLUID FLUXES ARE VOLUMES ADDED TO THE LAKE DURING PRESENT TIME STEP)
     -------------------------------------------------------------------------
 LAKE    STAGE         VOLUME     VOL.CHANGE      PRECIP     EVAPORATION        RUNOFF
   1   101.1987     1.1546E+07    5.5346E+05    1.8153E+05    1.6119E+05    0.0000E+00
   2   109.6883     2.0081E+07    9.8813E+05    2.4754E+05    2.1980E+05    0.0000E+00
   3   108.5811     1.2767E+07    3.8234E+05    1.1552E+05    1.0257E+05    0.0000E+00
   4   108.5811     1.2372E+07    3.2772E+05    9.9017E+04    8.7920E+04    0.0000E+00

            GROUND WATER            SURFACE WATER        WATER
 LAKE    INFLOW     OUTFLOW      INFLOW     OUTFLOW       USE
   1  5.3311E+05  0.0000E+00  0.0000E+00  0.0000E+00  0.0000E+00
   2  1.0070E+06  4.6567E+04  0.0000E+00  0.0000E+00  0.0000E+00
   3  1.4960E+05  1.9343E+04  0.0000E+00  0.0000E+00  0.0000E+00
   4  5.5598E+05  2.1804E+02  0.0000E+00  0.0000E+00  0.0000E+00

      CONNECTED LAKE   TIME-STEP         STAGE-CHANGE          PERCENT
 LAKE    INFLUX      SURFACE AREA   TIME STEP  CUMULATIVE    DISCREPANCY
   1   0.0000E+00     2.7500E+06   2.0126E-01 -1.3801E+01       0.000
   2   0.0000E+00     3.7500E+06   2.6350E-01 -5.3117E+00       0.000
   3   2.3914E+05     1.7500E+06   2.1848E-01 -6.4189E+00       0.000
   4  -2.3914E+05     1.5000E+06   2.1848E-01 -6.4189E+00       0.000
 --------------------------------------------------------------------------------



            CUMULATIVE HYDROLOGIC BUDGET SUMMARIES FOR SIMULATED LAKES
     (ALL FLUID FLUXES ARE SUMS OF VOLUMES ADDED TO THE LAKE SINCE INITIAL TIME)
     ---------------------------------------------------------------------------
 LAKE       PRECIP       EVAP       RUNOFF
   1     2.4618E+06  8.6179E+07  0.0000E+00
   2     2.9615E+06  5.9146E+07  0.0000E+00
   3     1.1414E+06  2.6113E+07  0.0000E+00
   4     1.3428E+06  2.5912E+07  0.0000E+00

            GROUND WATER            SURFACE WATER
 LAKE    INFLOW     OUTFLOW      INFLOW     OUTFLOW
   1  1.3162E+07  1.4874E+06  0.0000E+00  0.0000E+00
   2  3.9108E+07  2.5623E+06  0.0000E+00  0.0000E+00
   3  6.1785E+06  9.0501E+05  0.0000E+00  0.0000E+00
   4  2.5631E+07  4.9505E+05  0.0000E+00  0.0000E+00

         WATER    CONNECTED LAKE   CHANGE       PERCENT
 LAKE     USE         INFLUX       IN VOL.    DISCREPANCY
   1   0.0000E+00   2.0903E+06  -6.9953E+07      0.000
   2   0.0000E+00  -2.7924E+05  -1.9919E+07      0.000
   3   0.0000E+00   8.4653E+06  -1.1233E+07      0.000
   4   0.0000E+00  -1.0195E+07  -9.6283E+06      0.000
 --------------------------------------------------------------------------------


   1 CONNECTED LAKE SET

   2 LAKES:    3  4
 
 SOLVING FOR HEAD 

 CELL CONVERSIONS FOR ITER.=  2  LAYER=  1  STEP= 18  PERIOD=  2   (ROW,COL)
    WET(  8, 14)   WET( 10, 14)   
    12 ITERATIONS FOR TIME STEP  18 IN STRESS PERIOD    2

 HEAD/DRAWDOWN PRINTOUT FLAG = 0     TOTAL BUDGET PRINTOUT FLAG = 0
 CELL-BY-CELL FLOW TERM FLAG = 1

 OUTPUT FLAGS FOR ALL LAYERS ARE THE SAME:
   HEAD    DRAWDOWN  HEAD  DRAWDOWN
 PRINTOUT  PRINTOUT  SAVE    SAVE
 ----------------------------------
     0         0       0       0

 --------------------------------------------------------------------------------
 TIME STEP  18     NUMBER OF CONNECTED LAKES IS  2     TOTAL AREA =  0.325000000D+07



           SURFACE       SILL   WATER BUDGET  STAGE  CORRECTED   LAKE VOLUME
  LAKE       AREA      ELEVATION   STAGE   CORRECTION  STAGE     CORRECTION
 --------------------------------------------------------------------------------

   3     0.17500E+07 -99999.00    108.67      0.14    108.81    0.24576E+06
 --------------------------------------------------------------------------------

   4     0.15000E+07    108.00    108.97     -0.16    108.81   -0.24576E+06

     SECTIONS OF THE LAKE BOTTOM HAVE BECOME DRY.  THE DRYSECTIONS
     LIE ABOVE THE FOLLOWING 16 AQUIFER CELLS (LAYER,ROW,COLUMN):
     (  2,  9,  8)  (  2,  7,  9)  (  2,  8,  9)  (  2, 10,  9)  (  2, 11,  9)
     (  2,  7, 10)  (  2, 11, 10)  (  2,  7, 11)  (  2, 11, 11)  (  2,  7, 12)
     (  2, 11, 12)  (  2,  7, 13)  (  2,  8, 13)  (  2, 10, 13)  (  2, 11, 13)
     (  2,  9, 14)  (

 PERIOD     2     TIME STEP    18     TIME STEP LENGTH  5.8613E+00
 PERIOD TIME  8.3032E+01     TOTAL SIMULATION TIME  4.8303E+02


                 HYDROLOGIC BUDGET SUMMARIES FOR SIMULATED LAKES
     (ALL FLUID FLUXES ARE VOLUMES ADDED TO THE LAKE DURING PRESENT TIME STEP)
     -------------------------------------------------------------------------
 LAKE    STAGE         VOLUME     VOL.CHANGE      PRECIP     EVAPORATION        RUNOFF
   1   101.4169     1.2146E+07    5.9993E+05    1.8698E+05    1.6602E+05    0.0000E+00
   2   109.9625     2.1109E+07    1.0284E+06    2.5497E+05    2.2639E+05    0.0000E+00
   3   108.8084     1.3165E+07    3.9783E+05    1.1898E+05    1.0565E+05    0.0000E+00
   4   108.8084     1.2713E+07    3.4100E+05    1.0199E+05    9.0558E+04    0.0000E+00

            GROUND WATER            SURFACE WATER        WATER
 LAKE    INFLOW     OUTFLOW      INFLOW     OUTFLOW       USE
   1  5.7897E+05  0.0000E+00  0.0000E+00  0.0000E+00  0.0000E+00
   2  1.0483E+06  4.8488E+04  0.0000E+00  0.0000E+00  0.0000E+00
   3  1.5858E+05  1.9847E+04  0.0000E+00  0.0000E+00  0.0000E+00
   4  5.7557E+05  2.3538E+02  0.0000E+00  0.0000E+00  0.0000E+00

      CONNECTED LAKE   TIME-STEP         STAGE-CHANGE          PERCENT
 LAKE    INFLUX      SURFACE AREA   TIME STEP  CUMULATIVE    DISCREPANCY
   1   0.0000E+00     2.7500E+06   2.1816E-01 -1.3583E+01       0.000
   2   0.0000E+00     3.7500E+06   2.7423E-01 -5.0375E+00       0.000
   3   2.4576E+05     1.7500E+06   2.2734E-01 -6.1916E+00       0.000
   4  -2.4576E+05     1.5000E+06   2.2734E-01 -6.1916E+00       0.000
 --------------------------------------------------------------------------------



            CUMULATIVE HYDROLOGIC BUDGET SUMMARIES FOR SIMULATED LAKES
     (ALL FLUID FLUXES ARE SUMS OF VOLUMES ADDED TO THE LAKE SINCE INITIAL TIME)
     ---------------------------------------------------------------------------
 LAKE       PRECIP       EVAP       RUNOFF
   1     2.6487E+06  8.6345E+07  0.0000E+00
   2     3.2164E+06  5.9373E+07  0.0000E+00
   3     1.2604E+06  2.6219E+07  0.0000E+00
   4     1.4448E+06  2.6003E+07  0.0000E+00

            GROUND WATER            SURFACE WATER
 LAKE    INFLOW     OUTFLOW      INFLOW     OUTFLOW
   1  1.3741E+07  1.4874E+06  0.0000E+00  0.0000E+00
   2  4.0156E+07  2.6108E+06  0.0000E+00  0.0000E+00
   3  6.3371E+06  9.2486E+05  0.0000E+00  0.0000E+00
   4  2.6207E+07  4.9529E+05  0.0000E+00  0.0000E+00

         WATER    CONNECTED LAKE   CHANGE       PERCENT
 LAKE     USE         INFLUX       IN VOL.    DISCREPANCY
   1   0.0000E+00   2.0903E+06  -6.9353E+07      0.000
   2   0.0000E+00  -2.7924E+05  -1.8890E+07      0.000
   3   0.0000E+00   8.7110E+06  -1.0835E+07      0.000
   4   0.0000E+00  -1.0441E+07  -9.2873E+06      0.000
 --------------------------------------------------------------------------------


   1 CONNECTED LAKE SET

   2 LAKES:    3  4
 
 SOLVING FOR HEAD 
    12 ITERATIONS FOR TIME STEP  19 IN STRESS PERIOD    2

 HEAD/DRAWDOWN PRINTOUT FLAG = 0     TOTAL BUDGET PRINTOUT FLAG = 0
 CELL-BY-CELL FLOW TERM FLAG = 1

 OUTPUT FLAGS FOR ALL LAYERS ARE THE SAME:
   HEAD    DRAWDOWN  HEAD  DRAWDOWN
 PRINTOUT  PRINTOUT  SAVE    SAVE
 ----------------------------------
     0         0       0       0

 --------------------------------------------------------------------------------
 TIME STEP  19     NUMBER OF CONNECTED LAKES IS  2     TOTAL AREA =  0.325000000D+07



           SURFACE       SILL   WATER BUDGET  STAGE  CORRECTED   LAKE VOLUME
  LAKE       AREA      ELEVATION   STAGE   CORRECTION  STAGE     CORRECTION
 --------------------------------------------------------------------------------

   3     0.17500E+07 -99999.00    108.90      0.14    109.04    0.25255E+06
 --------------------------------------------------------------------------------

   4     0.15000E+07    108.00    109.21     -0.17    109.05   -0.25255E+06

     SECTIONS OF THE LAKE BOTTOM HAVE BECOME DRY.  THE DRYSECTIONS
     LIE ABOVE THE FOLLOWING 16 AQUIFER CELLS (LAYER,ROW,COLUMN):
     (  2,  9,  8)  (  2,  7,  9)  (  2,  8,  9)  (  2, 10,  9)  (  2, 11,  9)
     (  2,  7, 10)  (  2, 11, 10)  (  2,  7, 11)  (  2, 11, 11)  (  2,  7, 12)
     (  2, 11, 12)  (  2,  7, 13)  (  2,  8, 13)  (  2, 10, 13)  (  2, 11, 13)
     (  2,  9, 14)  (

 PERIOD     2     TIME STEP    19     TIME STEP LENGTH  6.0372E+00
 PERIOD TIME  8.9069E+01     TOTAL SIMULATION TIME  4.8907E+02


                 HYDROLOGIC BUDGET SUMMARIES FOR SIMULATED LAKES
     (ALL FLUID FLUXES ARE VOLUMES ADDED TO THE LAKE DURING PRESENT TIME STEP)
     -------------------------------------------------------------------------
 LAKE    STAGE         VOLUME     VOL.CHANGE      PRECIP     EVAPORATION        RUNOFF
   1   101.6522     1.2793E+07    6.4706E+05    1.9259E+05    1.7100E+05    0.0000E+00
   2   110.2477     2.2179E+07    1.0694E+06    2.6262E+05    2.3319E+05    0.0000E+00
   3   109.0450     1.3579E+07    4.1399E+05    1.2255E+05    1.0882E+05    0.0000E+00
   4   109.0450     1.3067E+07    3.5485E+05    1.0505E+05    9.3274E+04    0.0000E+00

            GROUND WATER            SURFACE WATER        WATER
 LAKE    INFLOW     OUTFLOW      INFLOW     OUTFLOW       USE
   1  6.2548E+05  0.0000E+00  0.0000E+00  0.0000E+00  0.0000E+00
   2  1.0907E+06  5.0740E+04  0.0000E+00  0.0000E+00  0.0000E+00
   3  1.6802E+05  2.0317E+04  0.0000E+00  0.0000E+00  0.0000E+00
   4  5.9588E+05  2.5433E+02  0.0000E+00  0.0000E+00  0.0000E+00

      CONNECTED LAKE   TIME-STEP         STAGE-CHANGE          PERCENT
 LAKE    INFLUX      SURFACE AREA   TIME STEP  CUMULATIVE    DISCREPANCY
   1   0.0000E+00     2.7500E+06   2.3530E-01 -1.3348E+01       0.000
   2   0.0000E+00     3.7500E+06   2.8516E-01 -4.7523E+00       0.000
   3   2.5255E+05     1.7500E+06   2.3657E-01 -5.9550E+00       0.000
   4  -2.5255E+05     1.5000E+06   2.3657E-01 -5.9550E+00       0.000
 --------------------------------------------------------------------------------



            CUMULATIVE HYDROLOGIC BUDGET SUMMARIES FOR SIMULATED LAKES
     (ALL FLUID FLUXES ARE SUMS OF VOLUMES ADDED TO THE LAKE SINCE INITIAL TIME)
     ---------------------------------------------------------------------------
 LAKE       PRECIP       EVAP       RUNOFF
   1     2.8413E+06  8.6516E+07  0.0000E+00
   2     3.4791E+06  5.9606E+07  0.0000E+00
   3     1.3830E+06  2.6328E+07  0.0000E+00
   4     1.5498E+06  2.6096E+07  0.0000E+00

            GROUND WATER            SURFACE WATER
 LAKE    INFLOW     OUTFLOW      INFLOW     OUTFLOW
   1  1.4366E+07  1.4874E+06  0.0000E+00  0.0000E+00
   2  4.1247E+07  2.6615E+06  0.0000E+00  0.0000E+00
   3  6.5051E+06  9.4517E+05  0.0000E+00  0.0000E+00
   4  2.6803E+07  4.9554E+05  0.0000E+00  0.0000E+00

         WATER    CONNECTED LAKE   CHANGE       PERCENT
 LAKE     USE         INFLUX       IN VOL.    DISCREPANCY
   1   0.0000E+00   2.0903E+06  -6.8706E+07      0.000
   2   0.0000E+00  -2.7924E+05  -1.7821E+07      0.000
   3   0.0000E+00   8.9636E+06  -1.0421E+07      0.000
   4   0.0000E+00  -1.0693E+07  -8.9325E+06      0.000
 --------------------------------------------------------------------------------


   1 CONNECTED LAKE SET

   2 LAKES:    3  4
 
 SOLVING FOR HEAD 
    12 ITERATIONS FOR TIME STEP  20 IN STRESS PERIOD    2

 HEAD/DRAWDOWN PRINTOUT FLAG = 1     TOTAL BUDGET PRINTOUT FLAG = 1
 CELL-BY-CELL FLOW TERM FLAG = 1

 OUTPUT FLAGS FOR EACH LAYER:
          HEAD    DRAWDOWN  HEAD  DRAWDOWN
 LAYER  PRINTOUT  PRINTOUT  SAVE    SAVE
 -----------------------------------------
    1       0         0       0       0
    2       0         0       0       0
    3       0         0       0       0
    4       0         0       0       0
    5       1         0       0       0

 --------------------------------------------------------------------------------
 TIME STEP  20     NUMBER OF CONNECTED LAKES IS  2     TOTAL AREA =  0.325000000D+07



           SURFACE       SILL   WATER BUDGET  STAGE  CORRECTED   LAKE VOLUME
  LAKE       AREA      ELEVATION   STAGE   CORRECTION  STAGE     CORRECTION
 --------------------------------------------------------------------------------

   3     0.17500E+07 -99999.00    109.14      0.15    109.29    0.25981E+06
 --------------------------------------------------------------------------------

   4     0.15000E+07    108.00    109.46     -0.17    109.29   -0.25981E+06

     SECTIONS OF THE LAKE BOTTOM HAVE BECOME DRY.  THE DRYSECTIONS
     LIE ABOVE THE FOLLOWING 16 AQUIFER CELLS (LAYER,ROW,COLUMN):
     (  2,  9,  8)  (  2,  7,  9)  (  2,  8,  9)  (  2, 10,  9)  (  2, 11,  9)
     (  2,  7, 10)  (  2, 11, 10)  (  2,  7, 11)  (  2, 11, 11)  (  2,  7, 12)
     (  2, 11, 12)  (  2,  7, 13)  (  2,  8, 13)  (  2, 10, 13)  (  2, 11, 13)
     (  2,  9, 14)  (

 PERIOD     2     TIME STEP    20     TIME STEP LENGTH  6.2183E+00
 PERIOD TIME  9.5288E+01     TOTAL SIMULATION TIME  4.9529E+02


                 HYDROLOGIC BUDGET SUMMARIES FOR SIMULATED LAKES
     (ALL FLUID FLUXES ARE VOLUMES ADDED TO THE LAKE DURING PRESENT TIME STEP)
     -------------------------------------------------------------------------
 LAKE    STAGE         VOLUME     VOL.CHANGE      PRECIP     EVAPORATION        RUNOFF
   1   101.9050     1.3489E+07    6.9525E+05    1.9836E+05    1.7613E+05    0.0000E+00
   2   110.5440     2.3290E+07    1.1112E+06    2.7050E+05    2.4018E+05    0.0000E+00
   3   109.2909     1.4009E+07    4.3040E+05    1.2623E+05    1.1208E+05    0.0000E+00
   4   109.2909     1.3436E+07    3.6891E+05    1.0820E+05    9.6072E+04    0.0000E+00

            GROUND WATER            SURFACE WATER        WATER
 LAKE    INFLOW     OUTFLOW      INFLOW     OUTFLOW       USE
   1  6.7302E+05  0.0000E+00  0.0000E+00  0.0000E+00  0.0000E+00
   2  1.1342E+06  5.3330E+04  0.0000E+00  0.0000E+00  0.0000E+00
   3  1.7733E+05  2.0887E+04  0.0000E+00  0.0000E+00  0.0000E+00
   4  6.1687E+05  2.7544E+02  0.0000E+00  0.0000E+00  0.0000E+00

      CONNECTED LAKE   TIME-STEP         STAGE-CHANGE          PERCENT
 LAKE    INFLUX      SURFACE AREA   TIME STEP  CUMULATIVE    DISCREPANCY
   1   0.0000E+00     2.7500E+06   2.5282E-01 -1.3095E+01       0.000
   2   0.0000E+00     3.7500E+06   2.9632E-01 -4.4560E+00       0.000
   3   2.5981E+05     1.7500E+06   2.4595E-01 -5.7091E+00       0.000
   4  -2.5981E+05     1.5000E+06   2.4595E-01 -5.7091E+00       0.000
 --------------------------------------------------------------------------------



            CUMULATIVE HYDROLOGIC BUDGET SUMMARIES FOR SIMULATED LAKES
     (ALL FLUID FLUXES ARE SUMS OF VOLUMES ADDED TO THE LAKE SINCE INITIAL TIME)
     ---------------------------------------------------------------------------
 LAKE       PRECIP       EVAP       RUNOFF
   1     3.0397E+06  8.6692E+07  0.0000E+00
   2     3.7496E+06  5.9846E+07  0.0000E+00
   3     1.5092E+06  2.6440E+07  0.0000E+00
   4     1.6580E+06  2.6192E+07  0.0000E+00

            GROUND WATER            SURFACE WATER
 LAKE    INFLOW     OUTFLOW      INFLOW     OUTFLOW
   1  1.5039E+07  1.4874E+06  0.0000E+00  0.0000E+00
   2  4.2381E+07  2.7148E+06  0.0000E+00  0.0000E+00
   3  6.6825E+06  9.6606E+05  0.0000E+00  0.0000E+00
   4  2.7420E+07  4.9582E+05  0.0000E+00  0.0000E+00

         WATER    CONNECTED LAKE   CHANGE       PERCENT
 LAKE     USE         INFLUX       IN VOL.    DISCREPANCY
   1   0.0000E+00   2.0903E+06  -6.8011E+07      0.000
   2   0.0000E+00  -2.7924E+05  -1.6710E+07      0.000
   3   0.0000E+00   9.2234E+06  -9.9908E+06      0.000
   4   0.0000E+00  -1.0953E+07  -8.5635E+06      0.000
 --------------------------------------------------------------------------------


   1 CONNECTED LAKE SET

   2 LAKES:    3  4
1
              HEAD IN LAYER   5 AT END OF TIME STEP  20 IN STRESS PERIOD    2
  ---------------------------------------------------------------------------

          1      2      3      4      5      6      7      8      9     10
 .........................................................................
   1   160.0  158.9  157.3  155.8  154.6  153.9  153.1  152.3  151.5  150.8
   2   160.0  157.8  154.9  152.5  150.9  149.9  148.9  148.0  147.2  146.4
   3   160.0  156.6  151.9  148.0  145.6  144.2  142.9  141.8  140.8  139.9
   4   160.0  155.7  149.5  144.1  140.7  138.6  136.8  135.3  134.1  133.2
   5   160.0  154.9  147.4  139.8  134.7  131.9  129.6  127.9  126.5  125.6
   6   160.0  154.3  145.2  134.4  126.0  122.5  120.3  118.8  117.2  116.2
   7   160.0  154.0  143.9  129.4  111.6  110.9  110.9  110.9  107.6  106.8
   8   160.0  153.8  143.3  127.8  111.1  110.6  110.5  108.3  104.6  102.2
   9   160.0  153.8  143.2  127.3  111.1  110.6  110.4  106.7  102.2  101.9
  10   160.0  153.8  143.3  127.8  111.1  110.6  110.5  108.3  104.6  102.2
  11   160.0  154.0  143.9  129.4  111.6  110.9  110.9  110.9  107.6  106.8
  12   160.0  154.3  145.2  134.4  126.0  122.5  120.3  118.8  117.2  116.2
  13   160.0  154.9  147.4  139.8  134.7  131.9  129.6  127.9  126.5  125.6
  14   160.0  155.7  149.5  144.1  140.7  138.6  136.8  135.3  134.1  133.2
  15   160.0  156.6  151.9  148.0  145.6  144.2  142.9  141.8  140.8  139.9
  16   160.0  157.8  154.9  152.5  150.9  149.9  148.9  148.0  147.2  146.4
  17   160.0  158.9  157.3  155.8  154.6  153.9  153.1  152.3  151.5  150.8
1
              HEAD IN LAYER   5 AT END OF TIME STEP  20 IN STRESS PERIOD    2
  ---------------------------------------------------------------------------

         11     12     13     14     15     16     17     18     19     20
 .........................................................................
   1   150.0  149.2  148.5  147.7  146.9  146.1  145.4  144.6  143.9  142.7
   2   145.6  144.8  144.1  143.4  142.8  142.1  141.5  141.0  140.5  139.9
   3   139.2  138.5  137.9  137.4  137.0  136.7  136.4  136.3  136.3  136.7
   4   132.5  132.0  131.7  131.5  131.6  131.7  132.0  132.4  133.1  134.4
   5   125.0  124.7  124.7  125.0  125.5  126.3  127.2  128.5  129.9  132.3
   6   115.8  115.8  116.4  117.6  118.8  120.0  121.4  123.2  125.5  129.8
   7   106.5  106.8  107.5  111.2  113.0  114.1  115.5  116.5  118.9  127.0
   8   102.1  102.2  104.5  107.8  109.2  109.4  110.9  109.8  110.1  124.8
   9   101.9  101.9  102.2  106.1  109.1  109.2  109.3  109.5  109.8  124.2
  10   102.1  102.2  104.5  107.8  109.3  109.4  111.0  109.9  110.3  124.8
  11   106.5  106.7  107.5  111.2  113.0  114.1  115.5  116.5  119.0  127.0
  12   115.8  115.8  116.4  117.6  118.7  120.0  121.5  123.2  125.5  129.9
  13   125.0  124.7  124.7  125.0  125.5  126.3  127.2  128.5  129.9  132.3
  14   132.5  132.0  131.7  131.5  131.6  131.7  132.0  132.4  133.1  134.4
  15   139.2  138.5  137.9  137.4  137.0  136.7  136.4  136.3  136.3  136.7
  16   145.6  144.8  144.1  143.4  142.8  142.1  141.5  141.0  140.5  139.9
  17   150.0  149.2  148.5  147.7  146.9  146.1  145.4  144.6  143.9  142.7
1
              HEAD IN LAYER   5 AT END OF TIME STEP  20 IN STRESS PERIOD    2
  ---------------------------------------------------------------------------

         21     22
 .................
   1   141.1  140.0
   2   139.7  140.0
   3   138.2  140.0
   4   137.3  140.0
   5   136.6  140.0
   6   135.8  140.0
   7   135.2  140.0
   8   134.8  140.0
   9   134.7  140.0
  10   134.8  140.0
  11   135.2  140.0
  12   135.8  140.0
  13   136.6  140.0
  14   137.3  140.0
  15   138.2  140.0
  16   139.7  140.0
  17   141.1  140.0
1
  VOLUMETRIC BUDGET FOR ENTIRE MODEL AT END OF TIME STEP 20 IN STRESS PERIOD   2
  ------------------------------------------------------------------------------

     CUMULATIVE VOLUMES      L**3       RATES FOR THIS TIME STEP      L**3/T
     ------------------                 ------------------------

           IN:                                      IN:
           ---                                      ---
             STORAGE =    20821042.0000               STORAGE =           0.0000
       CONSTANT HEAD =   875698368.0000         CONSTANT HEAD =      686498.9375
                  ET =           0.0000                    ET =           0.0000
            RECHARGE =   162843072.0000              RECHARGE =     1699400.0000
     SPECIFIED FLOWS =           0.0000       SPECIFIED FLOWS =           0.0000
       LAKE  SEEPAGE =     5664109.5000         LAKE  SEEPAGE =       11979.6787

            TOTAL IN =  1065026560.0000              TOTAL IN =     2397878.5000

          OUT:                                     OUT:
          ----                                     ----
             STORAGE =   642078400.0000               STORAGE =     1236213.6250
       CONSTANT HEAD =           0.0000         CONSTANT HEAD =           0.0000
                  ET =   331434592.0000                    ET =      743298.1250
            RECHARGE =           0.0000              RECHARGE =           0.0000
     SPECIFIED FLOWS =           0.0000       SPECIFIED FLOWS =           0.0000
       LAKE  SEEPAGE =    91522216.0000         LAKE  SEEPAGE =      418353.1875

           TOTAL OUT =  1065035200.0000             TOTAL OUT =     2397865.0000

            IN - OUT =       -8640.0000              IN - OUT =          13.5000

 PERCENT DISCREPANCY =           0.00     PERCENT DISCREPANCY =           0.00






          TIME SUMMARY AT END OF TIME STEP  20 IN STRESS PERIOD    2
                    SECONDS     MINUTES      HOURS       DAYS        YEARS
                    -----------------------------------------------------------
   TIME STEP LENGTH 5.37260E+05  8954.3      149.24      6.2183     1.70247E-02
 STRESS PERIOD TIME 8.23286E+06 1.37214E+05  2286.9      95.288     0.26088    
         TOTAL TIME 4.27929E+07 7.13214E+05  11887.      495.29      1.3560    
1
 
 SOLVING FOR HEAD 
    14 ITERATIONS FOR TIME STEP  21 IN STRESS PERIOD    2

 HEAD/DRAWDOWN PRINTOUT FLAG = 0     TOTAL BUDGET PRINTOUT FLAG = 0
 CELL-BY-CELL FLOW TERM FLAG = 1

 OUTPUT FLAGS FOR ALL LAYERS ARE THE SAME:
   HEAD    DRAWDOWN  HEAD  DRAWDOWN
 PRINTOUT  PRINTOUT  SAVE    SAVE
 ----------------------------------
     0         0       0       0

 --------------------------------------------------------------------------------
 TIME STEP  21     NUMBER OF CONNECTED LAKES IS  2     TOTAL AREA =  0.325000000D+07



           SURFACE       SILL   WATER BUDGET  STAGE  CORRECTED   LAKE VOLUME
  LAKE       AREA      ELEVATION   STAGE   CORRECTION  STAGE     CORRECTION
 --------------------------------------------------------------------------------

   3     0.17500E+07 -99999.00    109.39      0.15    109.55    0.26748E+06
 --------------------------------------------------------------------------------

   4     0.15000E+07    108.00    109.72     -0.18    109.55   -0.26748E+06

     SECTIONS OF THE LAKE BOTTOM HAVE BECOME DRY.  THE DRYSECTIONS
     LIE ABOVE THE FOLLOWING 16 AQUIFER CELLS (LAYER,ROW,COLUMN):
     (  2,  9,  8)  (  2,  7,  9)  (  2,  8,  9)  (  2, 10,  9)  (  2, 11,  9)
     (  2,  7, 10)  (  2, 11, 10)  (  2,  7, 11)  (  2, 11, 11)  (  2,  7, 12)
     (  2, 11, 12)  (  2,  7, 13)  (  2,  8, 13)  (  2, 10, 13)  (  2, 11, 13)
     (  2,  9, 14)  (

 PERIOD     2     TIME STEP    21     TIME STEP LENGTH  6.4048E+00
 PERIOD TIME  1.0169E+02     TOTAL SIMULATION TIME  5.0169E+02


                 HYDROLOGIC BUDGET SUMMARIES FOR SIMULATED LAKES
     (ALL FLUID FLUXES ARE VOLUMES ADDED TO THE LAKE DURING PRESENT TIME STEP)
     -------------------------------------------------------------------------
 LAKE    STAGE         VOLUME     VOL.CHANGE      PRECIP     EVAPORATION        RUNOFF
   1   102.1780     1.4239E+07    7.5069E+05    2.0431E+05    1.8142E+05    0.0000E+00
   2   110.8517     2.4444E+07    1.1538E+06    2.7861E+05    2.4739E+05    0.0000E+00
   3   109.5464     1.4456E+07    4.4706E+05    1.3002E+05    1.1545E+05    0.0000E+00
   4   109.5464     1.3819E+07    3.8319E+05    1.1144E+05    9.8955E+04    0.0000E+00

            GROUND WATER            SURFACE WATER        WATER
 LAKE    INFLOW     OUTFLOW      INFLOW     OUTFLOW       USE
   1  7.2780E+05  0.0000E+00  0.0000E+00  0.0000E+00  0.0000E+00
   2  1.1789E+06  5.6259E+04  0.0000E+00  0.0000E+00  0.0000E+00
   3  1.8657E+05  2.1561E+04  0.0000E+00  0.0000E+00  0.0000E+00
   4  6.3848E+05  2.9864E+02  0.0000E+00  0.0000E+00  0.0000E+00

      CONNECTED LAKE   TIME-STEP         STAGE-CHANGE          PERCENT
 LAKE    INFLUX      SURFACE AREA   TIME STEP  CUMULATIVE    DISCREPANCY
   1   0.0000E+00     2.7500E+06   2.7298E-01 -1.2822E+01       0.000
   2   0.0000E+00     3.7500E+06   3.0769E-01 -4.1483E+00       0.000
   3   2.6748E+05     1.7500E+06   2.5546E-01 -5.4536E+00       0.000
   4  -2.6748E+05     1.5000E+06   2.5546E-01 -5.4536E+00       0.000
 --------------------------------------------------------------------------------



            CUMULATIVE HYDROLOGIC BUDGET SUMMARIES FOR SIMULATED LAKES
     (ALL FLUID FLUXES ARE SUMS OF VOLUMES ADDED TO THE LAKE SINCE INITIAL TIME)
     ---------------------------------------------------------------------------
 LAKE       PRECIP       EVAP       RUNOFF
   1     3.2440E+06  8.6874E+07  0.0000E+00
   2     4.0282E+06  6.0094E+07  0.0000E+00
   3     1.6392E+06  2.6555E+07  0.0000E+00
   4     1.7695E+06  2.6291E+07  0.0000E+00

            GROUND WATER            SURFACE WATER
 LAKE    INFLOW     OUTFLOW      INFLOW     OUTFLOW
   1  1.5767E+07  1.4874E+06  0.0000E+00  0.0000E+00
   2  4.3560E+07  2.7711E+06  0.0000E+00  0.0000E+00
   3  6.8690E+06  9.8762E+05  0.0000E+00  0.0000E+00
   4  2.8058E+07  4.9611E+05  0.0000E+00  0.0000E+00

         WATER    CONNECTED LAKE   CHANGE       PERCENT
 LAKE     USE         INFLUX       IN VOL.    DISCREPANCY
   1   0.0000E+00   2.0903E+06  -6.7260E+07      0.000
   2   0.0000E+00  -2.7924E+05  -1.5556E+07      0.000
   3   0.0000E+00   9.4908E+06  -9.5438E+06      0.000
   4   0.0000E+00  -1.1221E+07  -8.1804E+06      0.000
 --------------------------------------------------------------------------------


   1 CONNECTED LAKE SET

   2 LAKES:    3  4
 
 SOLVING FOR HEAD 
    18 ITERATIONS FOR TIME STEP  22 IN STRESS PERIOD    2

 HEAD/DRAWDOWN PRINTOUT FLAG = 0     TOTAL BUDGET PRINTOUT FLAG = 0
 CELL-BY-CELL FLOW TERM FLAG = 1

 OUTPUT FLAGS FOR ALL LAYERS ARE THE SAME:
   HEAD    DRAWDOWN  HEAD  DRAWDOWN
 PRINTOUT  PRINTOUT  SAVE    SAVE
 ----------------------------------
     0         0       0       0

 --------------------------------------------------------------------------------
 TIME STEP  22     NUMBER OF CONNECTED LAKES IS  2     TOTAL AREA =  0.325000000D+07



           SURFACE       SILL   WATER BUDGET  STAGE  CORRECTED   LAKE VOLUME
  LAKE       AREA      ELEVATION   STAGE   CORRECTION  STAGE     CORRECTION
 --------------------------------------------------------------------------------

   3     0.17500E+07 -99999.00    109.65      0.16    109.81    0.27550E+06
 --------------------------------------------------------------------------------

   4     0.15000E+07    108.00    110.00     -0.18    109.81   -0.27550E+06

     SECTIONS OF THE LAKE BOTTOM HAVE BECOME DRY.  THE DRYSECTIONS
     LIE ABOVE THE FOLLOWING 16 AQUIFER CELLS (LAYER,ROW,COLUMN):
     (  2,  9,  8)  (  2,  7,  9)  (  2,  8,  9)  (  2, 10,  9)  (  2, 11,  9)
     (  2,  7, 10)  (  2, 11, 10)  (  2,  7, 11)  (  2, 11, 11)  (  2,  7, 12)
     (  2, 11, 12)  (  2,  7, 13)  (  2,  8, 13)  (  2, 10, 13)  (  2, 11, 13)
     (  2,  9, 14)  (

 PERIOD     2     TIME STEP    22     TIME STEP LENGTH  6.5970E+00
 PERIOD TIME  1.0829E+02     TOTAL SIMULATION TIME  5.0829E+02


                 HYDROLOGIC BUDGET SUMMARIES FOR SIMULATED LAKES
     (ALL FLUID FLUXES ARE VOLUMES ADDED TO THE LAKE DURING PRESENT TIME STEP)
     -------------------------------------------------------------------------
 LAKE    STAGE         VOLUME     VOL.CHANGE      PRECIP     EVAPORATION        RUNOFF
   1   102.4916     1.5102E+07    8.6256E+05    2.1044E+05    1.8686E+05    0.0000E+00
   2   111.1709     2.5640E+07    1.1968E+06    2.8697E+05    2.5481E+05    0.0000E+00
   3   109.8115     1.4920E+07    4.6398E+05    1.3392E+05    1.1891E+05    0.0000E+00
   4   109.8115     1.4217E+07    3.9769E+05    1.1479E+05    1.0192E+05    0.0000E+00

            GROUND WATER            SURFACE WATER        WATER
 LAKE    INFLOW     OUTFLOW      INFLOW     OUTFLOW       USE
   1  8.3898E+05  0.0000E+00  0.0000E+00  0.0000E+00  0.0000E+00
   2  1.2246E+06  5.9946E+04  0.0000E+00  0.0000E+00  0.0000E+00
   3  1.9580E+05  2.2329E+04  0.0000E+00  0.0000E+00  0.0000E+00
   4  6.6065E+05  3.2391E+02  0.0000E+00  0.0000E+00  0.0000E+00

      CONNECTED LAKE   TIME-STEP         STAGE-CHANGE          PERCENT
 LAKE    INFLUX      SURFACE AREA   TIME STEP  CUMULATIVE    DISCREPANCY
   1   0.0000E+00     2.7500E+06   3.1366E-01 -1.2508E+01       0.000
   2   0.0000E+00     3.7500E+06   3.1916E-01 -3.8291E+00       0.000
   3   2.7550E+05     1.7500E+06   2.6513E-01 -5.1885E+00       0.000
   4  -2.7550E+05     1.5000E+06   2.6513E-01 -5.1885E+00       0.000
 --------------------------------------------------------------------------------



            CUMULATIVE HYDROLOGIC BUDGET SUMMARIES FOR SIMULATED LAKES
     (ALL FLUID FLUXES ARE SUMS OF VOLUMES ADDED TO THE LAKE SINCE INITIAL TIME)
     ---------------------------------------------------------------------------
 LAKE       PRECIP       EVAP       RUNOFF
   1     3.4544E+06  8.7060E+07  0.0000E+00
   2     4.3151E+06  6.0348E+07  0.0000E+00
   3     1.7731E+06  2.6674E+07  0.0000E+00
   4     1.8842E+06  2.6393E+07  0.0000E+00

            GROUND WATER            SURFACE WATER
 LAKE    INFLOW     OUTFLOW      INFLOW     OUTFLOW
   1  1.6606E+07  1.4874E+06  0.0000E+00  0.0000E+00
   2  4.4784E+07  2.8310E+06  0.0000E+00  0.0000E+00
   3  7.0648E+06  1.0100E+06  0.0000E+00  0.0000E+00
   4  2.8719E+07  4.9644E+05  0.0000E+00  0.0000E+00

         WATER    CONNECTED LAKE   CHANGE       PERCENT
 LAKE     USE         INFLUX       IN VOL.    DISCREPANCY
   1   0.0000E+00   2.0903E+06  -6.6397E+07      0.000
   2   0.0000E+00  -2.7924E+05  -1.4359E+07      0.000
   3   0.0000E+00   9.7663E+06  -9.0798E+06      0.000
   4   0.0000E+00  -1.1496E+07  -7.7827E+06      0.000
 --------------------------------------------------------------------------------


   1 CONNECTED LAKE SET

   2 LAKES:    3  4
 
 SOLVING FOR HEAD 
    13 ITERATIONS FOR TIME STEP  23 IN STRESS PERIOD    2

 HEAD/DRAWDOWN PRINTOUT FLAG = 0     TOTAL BUDGET PRINTOUT FLAG = 0
 CELL-BY-CELL FLOW TERM FLAG = 1

 OUTPUT FLAGS FOR ALL LAYERS ARE THE SAME:
   HEAD    DRAWDOWN  HEAD  DRAWDOWN
 PRINTOUT  PRINTOUT  SAVE    SAVE
 ----------------------------------
     0         0       0       0

 --------------------------------------------------------------------------------
 TIME STEP  23     NUMBER OF CONNECTED LAKES IS  2     TOTAL AREA =  0.325000000D+07



           SURFACE       SILL   WATER BUDGET  STAGE  CORRECTED   LAKE VOLUME
  LAKE       AREA      ELEVATION   STAGE   CORRECTION  STAGE     CORRECTION
 --------------------------------------------------------------------------------

   3     0.17500E+07 -99999.00    109.92      0.16    110.09    0.28383E+06
 --------------------------------------------------------------------------------

   4     0.15000E+07    108.00    110.28     -0.19    110.09   -0.28383E+06

     SECTIONS OF THE LAKE BOTTOM HAVE BECOME DRY.  THE DRYSECTIONS
     LIE ABOVE THE FOLLOWING 16 AQUIFER CELLS (LAYER,ROW,COLUMN):
     (  2,  9,  8)  (  2,  7,  9)  (  2,  8,  9)  (  2, 10,  9)  (  2, 11,  9)
     (  2,  7, 10)  (  2, 11, 10)  (  2,  7, 11)  (  2, 11, 11)  (  2,  7, 12)
     (  2, 11, 12)  (  2,  7, 13)  (  2,  8, 13)  (  2, 10, 13)  (  2, 11, 13)
     (  2,  9, 14)  (

 PERIOD     2     TIME STEP    23     TIME STEP LENGTH  6.7949E+00
 PERIOD TIME  1.1508E+02     TOTAL SIMULATION TIME  5.1508E+02


                 HYDROLOGIC BUDGET SUMMARIES FOR SIMULATED LAKES
     (ALL FLUID FLUXES ARE VOLUMES ADDED TO THE LAKE DURING PRESENT TIME STEP)
     -------------------------------------------------------------------------
 LAKE    STAGE         VOLUME     VOL.CHANGE      PRECIP     EVAPORATION        RUNOFF
   1   102.8372     1.6052E+07    9.5029E+05    2.1676E+05    1.9247E+05    0.0000E+00
   2   111.5014     2.6880E+07    1.2394E+06    2.9558E+05    2.6245E+05    0.0000E+00
   3   110.0865     1.5401E+07    4.8115E+05    1.3794E+05    1.2248E+05    0.0000E+00
   4   110.0865     1.4630E+07    4.1241E+05    1.1823E+05    1.0498E+05    0.0000E+00

            GROUND WATER            SURFACE WATER        WATER
 LAKE    INFLOW     OUTFLOW      INFLOW     OUTFLOW       USE
   1  9.2600E+05  0.0000E+00  0.0000E+00  0.0000E+00  0.0000E+00
   2  1.2714E+06  6.5144E+04  0.0000E+00  0.0000E+00  0.0000E+00
   3  2.0505E+05  2.3185E+04  0.0000E+00  0.0000E+00  0.0000E+00
   4  6.8334E+05  3.5129E+02  0.0000E+00  0.0000E+00  0.0000E+00

      CONNECTED LAKE   TIME-STEP         STAGE-CHANGE          PERCENT
 LAKE    INFLUX      SURFACE AREA   TIME STEP  CUMULATIVE    DISCREPANCY
   1   0.0000E+00     2.7500E+06   3.4556E-01 -1.2163E+01       0.000
   2   0.0000E+00     3.7500E+06   3.3050E-01 -3.4986E+00       0.000
   3   2.8383E+05     1.7500E+06   2.7495E-01 -4.9135E+00       0.000
   4  -2.8383E+05     1.5000E+06   2.7495E-01 -4.9135E+00       0.000
 --------------------------------------------------------------------------------



            CUMULATIVE HYDROLOGIC BUDGET SUMMARIES FOR SIMULATED LAKES
     (ALL FLUID FLUXES ARE SUMS OF VOLUMES ADDED TO THE LAKE SINCE INITIAL TIME)
     ---------------------------------------------------------------------------
 LAKE       PRECIP       EVAP       RUNOFF
   1     3.6712E+06  8.7253E+07  0.0000E+00
   2     4.6107E+06  6.0611E+07  0.0000E+00
   3     1.9111E+06  2.6797E+07  0.0000E+00
   4     2.0025E+06  2.6498E+07  0.0000E+00

            GROUND WATER            SURFACE WATER
 LAKE    INFLOW     OUTFLOW      INFLOW     OUTFLOW
   1  1.7532E+07  1.4874E+06  0.0000E+00  0.0000E+00
   2  4.6056E+07  2.8962E+06  0.0000E+00  0.0000E+00
   3  7.2699E+06  1.0331E+06  0.0000E+00  0.0000E+00
   4  2.9402E+07  4.9679E+05  0.0000E+00  0.0000E+00

         WATER    CONNECTED LAKE   CHANGE       PERCENT
 LAKE     USE         INFLUX       IN VOL.    DISCREPANCY
   1   0.0000E+00   2.0903E+06  -6.5447E+07      0.000
   2   0.0000E+00  -2.7924E+05  -1.3120E+07      0.000
   3   0.0000E+00   1.0050E+07  -8.5986E+06      0.000
   4   0.0000E+00  -1.1780E+07  -7.3702E+06      0.000
 --------------------------------------------------------------------------------


   1 CONNECTED LAKE SET

   2 LAKES:    3  4
 
 SOLVING FOR HEAD 
    13 ITERATIONS FOR TIME STEP  24 IN STRESS PERIOD    2

 HEAD/DRAWDOWN PRINTOUT FLAG = 0     TOTAL BUDGET PRINTOUT FLAG = 0
 CELL-BY-CELL FLOW TERM FLAG = 1

 OUTPUT FLAGS FOR ALL LAYERS ARE THE SAME:
   HEAD    DRAWDOWN  HEAD  DRAWDOWN
 PRINTOUT  PRINTOUT  SAVE    SAVE
 ----------------------------------
     0         0       0       0

 --------------------------------------------------------------------------------
 TIME STEP  24     NUMBER OF CONNECTED LAKES IS  3     TOTAL AREA =  0.600000000D+07

 READJUST STAGE OF LAKE   3 TO LAKE   3 SILL ELEVATION BY -0.20 TO  110.00
 READJUST STAGE OF LAKE   4 TO LAKE   3 SILL ELEVATION BY -0.57 TO  110.00


           SURFACE       SILL   WATER BUDGET  STAGE  CORRECTED   LAKE VOLUME
  LAKE       AREA      ELEVATION   STAGE   CORRECTION  STAGE     CORRECTION
 --------------------------------------------------------------------------------

   1     0.27500E+07 -99999.00    103.21      0.44    103.65    0.12064E+07
   3     0.17500E+07    110.00    110.20     -0.20    110.00   -0.35693E+06
   4     0.15000E+07    108.00    110.57     -0.57    110.00   -0.84946E+06

     SECTIONS OF THE LAKE BOTTOM HAVE BECOME DRY.  THE DRYSECTIONS
     LIE ABOVE THE FOLLOWING 16 AQUIFER CELLS (LAYER,ROW,COLUMN):
     (  2,  9,  8)  (  2,  7,  9)  (  2,  8,  9)  (  2, 10,  9)  (  2, 11,  9)
     (  2,  7, 10)  (  2, 11, 10)  (  2,  7, 11)  (  2, 11, 11)  (  2,  7, 12)
     (  2, 11, 12)  (  2,  7, 13)  (  2,  8, 13)  (  2, 10, 13)  (  2, 11, 13)
     (  2,  9, 14)  (

 PERIOD     2     TIME STEP    24     TIME STEP LENGTH  6.9987E+00
 PERIOD TIME  1.2208E+02     TOTAL SIMULATION TIME  5.2208E+02


                 HYDROLOGIC BUDGET SUMMARIES FOR SIMULATED LAKES
     (ALL FLUID FLUXES ARE VOLUMES ADDED TO THE LAKE DURING PRESENT TIME STEP)
     -------------------------------------------------------------------------
 LAKE    STAGE         VOLUME     VOL.CHANGE      PRECIP     EVAPORATION        RUNOFF
   1   103.6513     1.8291E+07    2.2389E+06    2.2326E+05    1.9824E+05    0.0000E+00
   2   111.8433     2.8162E+07    1.2822E+06    3.0444E+05    2.7033E+05    0.0000E+00
   3   110.0000     1.5250E+07   -1.5134E+05    1.4207E+05    1.2615E+05    0.0000E+00
   4   110.0000     1.4500E+07   -1.2973E+05    1.2178E+05    1.0813E+05    0.0000E+00

            GROUND WATER            SURFACE WATER        WATER
 LAKE    INFLOW     OUTFLOW      INFLOW     OUTFLOW       USE
   1  1.0075E+06  0.0000E+00  0.0000E+00  0.0000E+00  0.0000E+00
   2  1.3192E+06  7.1124E+04  0.0000E+00  0.0000E+00  0.0000E+00
   3  2.1425E+05  2.4587E+04  0.0000E+00  0.0000E+00  0.0000E+00
   4  7.0647E+05  3.8131E+02  0.0000E+00  0.0000E+00  0.0000E+00

      CONNECTED LAKE   TIME-STEP         STAGE-CHANGE          PERCENT
 LAKE    INFLUX      SURFACE AREA   TIME STEP  CUMULATIVE    DISCREPANCY
   1   1.2064E+06     2.7500E+06   8.1415E-01 -1.1349E+01       0.000
   2   0.0000E+00     3.7500E+06   3.4191E-01 -3.1567E+00       0.000
   3  -3.5693E+05     1.7500E+06  -8.6484E-02 -5.0000E+00       0.000
   4  -8.4946E+05     1.5000E+06  -8.6488E-02 -5.0000E+00       0.000
 --------------------------------------------------------------------------------



            CUMULATIVE HYDROLOGIC BUDGET SUMMARIES FOR SIMULATED LAKES
     (ALL FLUID FLUXES ARE SUMS OF VOLUMES ADDED TO THE LAKE SINCE INITIAL TIME)
     ---------------------------------------------------------------------------
 LAKE       PRECIP       EVAP       RUNOFF
   1     3.8945E+06  8.7451E+07  0.0000E+00
   2     4.9152E+06  6.0881E+07  0.0000E+00
   3     2.0531E+06  2.6923E+07  0.0000E+00
   4     2.1242E+06  2.6606E+07  0.0000E+00

            GROUND WATER            SURFACE WATER
 LAKE    INFLOW     OUTFLOW      INFLOW     OUTFLOW
   1  1.8539E+07  1.4874E+06  0.0000E+00  0.0000E+00
   2  4.7375E+07  2.9673E+06  0.0000E+00  0.0000E+00
   3  7.4841E+06  1.0577E+06  0.0000E+00  0.0000E+00
   4  3.0109E+07  4.9717E+05  0.0000E+00  0.0000E+00

         WATER    CONNECTED LAKE   CHANGE       PERCENT
 LAKE     USE         INFLUX       IN VOL.    DISCREPANCY
   1   0.0000E+00   3.2967E+06  -6.3208E+07      0.000
   2   0.0000E+00  -2.7924E+05  -1.1838E+07      0.000
   3   0.0000E+00   9.6932E+06  -8.7500E+06      0.000
   4   0.0000E+00  -1.2630E+07  -7.5000E+06      0.000
 --------------------------------------------------------------------------------


   1 CONNECTED LAKE SET

   3 LAKES:    1  3  4
 
 SOLVING FOR HEAD 
    14 ITERATIONS FOR TIME STEP  25 IN STRESS PERIOD    2

 HEAD/DRAWDOWN PRINTOUT FLAG = 0     TOTAL BUDGET PRINTOUT FLAG = 0
 CELL-BY-CELL FLOW TERM FLAG = 1

 OUTPUT FLAGS FOR ALL LAYERS ARE THE SAME:
   HEAD    DRAWDOWN  HEAD  DRAWDOWN
 PRINTOUT  PRINTOUT  SAVE    SAVE
 ----------------------------------
     0         0       0       0

 --------------------------------------------------------------------------------
 TIME STEP  25     NUMBER OF CONNECTED LAKES IS  4     TOTAL AREA =  0.975000000D+07

 READJUST STAGE OF LAKE   2 TO LAKE   2 SILL ELEVATION BY -0.20 TO  112.00
 READJUST STAGE OF LAKE   3 TO LAKE   3 SILL ELEVATION BY -0.14 TO  110.00
 READJUST STAGE OF LAKE   4 TO LAKE   3 SILL ELEVATION BY -0.51 TO  110.00


           SURFACE       SILL   WATER BUDGET  STAGE  CORRECTED   LAKE VOLUME
  LAKE       AREA      ELEVATION   STAGE   CORRECTION  STAGE     CORRECTION
 --------------------------------------------------------------------------------

   1     0.27500E+07 -99999.00    104.05      0.64    104.68    0.17484E+07
   2     0.37500E+07    112.00    112.20     -0.20    112.00   -0.73801E+06
   3     0.17500E+07    110.00    110.14     -0.14    110.00   -0.24163E+06
   4     0.15000E+07    108.00    110.51     -0.51    110.00   -0.76879E+06

     SECTIONS OF THE LAKE BOTTOM HAVE BECOME DRY.  THE DRYSECTIONS
     LIE ABOVE THE FOLLOWING 16 AQUIFER CELLS (LAYER,ROW,COLUMN):
     (  2,  9,  8)  (  2,  7,  9)  (  2,  8,  9)  (  2, 10,  9)  (  2, 11,  9)
     (  2,  7, 10)  (  2, 11, 10)  (  2,  7, 11)  (  2, 11, 11)  (  2,  7, 12)
     (  2, 11, 12)  (  2,  7, 13)  (  2,  8, 13)  (  2, 10, 13)  (  2, 11, 13)
     (  2,  9, 14)  (

 PERIOD     2     TIME STEP    25     TIME STEP LENGTH  7.2087E+00
 PERIOD TIME  1.2929E+02     TOTAL SIMULATION TIME  5.2929E+02


                 HYDROLOGIC BUDGET SUMMARIES FOR SIMULATED LAKES
     (ALL FLUID FLUXES ARE VOLUMES ADDED TO THE LAKE DURING PRESENT TIME STEP)
     -------------------------------------------------------------------------
 LAKE    STAGE         VOLUME     VOL.CHANGE      PRECIP     EVAPORATION        RUNOFF
   1   104.6813     2.1123E+07    2.8324E+06    2.2996E+05    2.0419E+05    0.0000E+00
   2   112.0000     2.8750E+07    5.8769E+05    3.1358E+05    2.7844E+05    0.0000E+00
   3   110.0000     1.5250E+07    1.0000E+00    1.4634E+05    1.2994E+05    0.0000E+00
   4   110.0000     1.4500E+07    1.0000E+00    1.2543E+05    1.1137E+05    0.0000E+00

            GROUND WATER            SURFACE WATER        WATER
 LAKE    INFLOW     OUTFLOW      INFLOW     OUTFLOW       USE
   1  1.0582E+06  0.0000E+00  0.0000E+00  0.0000E+00  0.0000E+00
   2  1.3680E+06  7.7400E+04  0.0000E+00  0.0000E+00  0.0000E+00
   3  2.4832E+05  2.3090E+04  0.0000E+00  0.0000E+00  0.0000E+00
   4  7.5511E+05  3.7467E+02  0.0000E+00  0.0000E+00  0.0000E+00

      CONNECTED LAKE   TIME-STEP         STAGE-CHANGE          PERCENT
 LAKE    INFLUX      SURFACE AREA   TIME STEP  CUMULATIVE    DISCREPANCY
   1   1.7484E+06     2.7500E+06   1.0300E+00 -1.0319E+01       0.000
   2  -7.3801E+05     3.7500E+06   1.5672E-01 -3.0000E+00       0.000
   3  -2.4163E+05     1.7500E+06   0.0000E+00 -5.0000E+00       0.000
   4  -7.6879E+05     1.5000E+06   0.0000E+00 -5.0000E+00       0.000
 --------------------------------------------------------------------------------



            CUMULATIVE HYDROLOGIC BUDGET SUMMARIES FOR SIMULATED LAKES
     (ALL FLUID FLUXES ARE SUMS OF VOLUMES ADDED TO THE LAKE SINCE INITIAL TIME)
     ---------------------------------------------------------------------------
 LAKE       PRECIP       EVAP       RUNOFF
   1     4.1244E+06  8.7655E+07  0.0000E+00
   2     5.2287E+06  6.1160E+07  0.0000E+00
   3     2.1995E+06  2.7053E+07  0.0000E+00
   4     2.2497E+06  2.6718E+07  0.0000E+00

            GROUND WATER            SURFACE WATER
 LAKE    INFLOW     OUTFLOW      INFLOW     OUTFLOW
   1  1.9597E+07  1.4874E+06  0.0000E+00  0.0000E+00
   2  4.8743E+07  3.0447E+06  0.0000E+00  0.0000E+00
   3  7.7325E+06  1.0808E+06  0.0000E+00  0.0000E+00
   4  3.0864E+07  4.9755E+05  0.0000E+00  0.0000E+00

         WATER    CONNECTED LAKE   CHANGE       PERCENT
 LAKE     USE         INFLUX       IN VOL.    DISCREPANCY
   1   0.0000E+00   5.0451E+06  -6.0376E+07      0.000
   2   0.0000E+00  -1.0172E+06  -1.1250E+07      0.000
   3   0.0000E+00   9.4516E+06  -8.7500E+06      0.000
   4   0.0000E+00  -1.3398E+07  -7.5000E+06      0.000
 --------------------------------------------------------------------------------


   1 CONNECTED LAKE SET

   4 LAKES:    1  2  3  4
 
 SOLVING FOR HEAD 
    14 ITERATIONS FOR TIME STEP  26 IN STRESS PERIOD    2

 HEAD/DRAWDOWN PRINTOUT FLAG = 0     TOTAL BUDGET PRINTOUT FLAG = 0
 CELL-BY-CELL FLOW TERM FLAG = 1

 OUTPUT FLAGS FOR ALL LAYERS ARE THE SAME:
   HEAD    DRAWDOWN  HEAD  DRAWDOWN
 PRINTOUT  PRINTOUT  SAVE    SAVE
 ----------------------------------
     0         0       0       0

 --------------------------------------------------------------------------------
 TIME STEP  26     NUMBER OF CONNECTED LAKES IS  4     TOTAL AREA =  0.975000000D+07

 READJUST STAGE OF LAKE   2 TO LAKE   2 SILL ELEVATION BY -0.37 TO  112.00
 READJUST STAGE OF LAKE   3 TO LAKE   3 SILL ELEVATION BY -0.15 TO  110.00
 READJUST STAGE OF LAKE   4 TO LAKE   3 SILL ELEVATION BY -0.54 TO  110.00


           SURFACE       SILL   WATER BUDGET  STAGE  CORRECTED   LAKE VOLUME
  LAKE       AREA      ELEVATION   STAGE   CORRECTION  STAGE     CORRECTION
 --------------------------------------------------------------------------------

   1     0.27500E+07 -99999.00    105.09      0.90    105.99    0.24739E+07
   2     0.37500E+07    112.00    112.37     -0.37    112.00   -0.13948E+07
   3     0.17500E+07    110.00    110.15     -0.15    110.00   -0.26859E+06
   4     0.15000E+07    108.00    110.54     -0.54    110.00   -0.81051E+06

     SECTIONS OF THE LAKE BOTTOM HAVE BECOME DRY.  THE DRYSECTIONS
     LIE ABOVE THE FOLLOWING 16 AQUIFER CELLS (LAYER,ROW,COLUMN):
     (  2,  9,  8)  (  2,  7,  9)  (  2,  8,  9)  (  2, 10,  9)  (  2, 11,  9)
     (  2,  7, 10)  (  2, 11, 10)  (  2,  7, 11)  (  2, 11, 11)  (  2,  7, 12)
     (  2, 11, 12)  (  2,  7, 13)  (  2,  8, 13)  (  2, 10, 13)  (  2, 11, 13)
     (  2,  9, 14)  (

 PERIOD     2     TIME STEP    26     TIME STEP LENGTH  7.4250E+00
 PERIOD TIME  1.3672E+02     TOTAL SIMULATION TIME  5.3672E+02


                 HYDROLOGIC BUDGET SUMMARIES FOR SIMULATED LAKES
     (ALL FLUID FLUXES ARE VOLUMES ADDED TO THE LAKE DURING PRESENT TIME STEP)
     -------------------------------------------------------------------------
 LAKE    STAGE         VOLUME     VOL.CHANGE      PRECIP     EVAPORATION        RUNOFF
   1   105.9918     2.4727E+07    3.6039E+06    2.3686E+05    2.1031E+05    0.0000E+00
   2   112.0000     2.8750E+07    0.0000E+00    3.2299E+05    2.8679E+05    0.0000E+00
   3   110.0000     1.5250E+07    0.0000E+00    1.5073E+05    1.3383E+05    0.0000E+00
   4   110.0000     1.4500E+07    0.0000E+00    1.2919E+05    1.1472E+05    0.0000E+00

            GROUND WATER            SURFACE WATER        WATER
 LAKE    INFLOW     OUTFLOW      INFLOW     OUTFLOW       USE
   1  1.1034E+06  0.0000E+00  0.0000E+00  0.0000E+00  0.0000E+00
   2  1.4378E+06  7.9143E+04  0.0000E+00  0.0000E+00  0.0000E+00
   3  2.7418E+05  2.2485E+04  0.0000E+00  0.0000E+00  0.0000E+00
   4  7.9642E+05  3.8855E+02  0.0000E+00  0.0000E+00  0.0000E+00

      CONNECTED LAKE   TIME-STEP         STAGE-CHANGE          PERCENT
 LAKE    INFLUX      SURFACE AREA   TIME STEP  CUMULATIVE    DISCREPANCY
   1   2.4739E+06     2.7500E+06   1.3105E+00 -9.0082E+00       0.000
   2  -1.3948E+06     3.7500E+06   0.0000E+00 -3.0000E+00       0.000
   3  -2.6859E+05     1.7500E+06   0.0000E+00 -5.0000E+00       0.000
   4  -8.1051E+05     1.5000E+06   0.0000E+00 -5.0000E+00       0.000
 --------------------------------------------------------------------------------



            CUMULATIVE HYDROLOGIC BUDGET SUMMARIES FOR SIMULATED LAKES
     (ALL FLUID FLUXES ARE SUMS OF VOLUMES ADDED TO THE LAKE SINCE INITIAL TIME)
     ---------------------------------------------------------------------------
 LAKE       PRECIP       EVAP       RUNOFF
   1     4.3613E+06  8.7866E+07  0.0000E+00
   2     5.5517E+06  6.1446E+07  0.0000E+00
   3     2.3502E+06  2.7187E+07  0.0000E+00
   4     2.3789E+06  2.6832E+07  0.0000E+00

            GROUND WATER            SURFACE WATER
 LAKE    INFLOW     OUTFLOW      INFLOW     OUTFLOW
   1  2.0701E+07  1.4874E+06  0.0000E+00  0.0000E+00
   2  5.0181E+07  3.1238E+06  0.0000E+00  0.0000E+00
   3  8.0066E+06  1.1033E+06  0.0000E+00  0.0000E+00
   4  3.1660E+07  4.9793E+05  0.0000E+00  0.0000E+00

         WATER    CONNECTED LAKE   CHANGE       PERCENT
 LAKE     USE         INFLUX       IN VOL.    DISCREPANCY
   1   0.0000E+00   7.5190E+06  -5.6772E+07      0.000
   2   0.0000E+00  -2.4121E+06  -1.1250E+07      0.000
   3   0.0000E+00   9.1830E+06  -8.7500E+06      0.000
   4   0.0000E+00  -1.4209E+07  -7.5000E+06      0.000
 --------------------------------------------------------------------------------


   1 CONNECTED LAKE SET

   4 LAKES:    1  2  3  4
 
 SOLVING FOR HEAD 
    16 ITERATIONS FOR TIME STEP  27 IN STRESS PERIOD    2

 HEAD/DRAWDOWN PRINTOUT FLAG = 0     TOTAL BUDGET PRINTOUT FLAG = 0
 CELL-BY-CELL FLOW TERM FLAG = 1

 OUTPUT FLAGS FOR ALL LAYERS ARE THE SAME:
   HEAD    DRAWDOWN  HEAD  DRAWDOWN
 PRINTOUT  PRINTOUT  SAVE    SAVE
 ----------------------------------
     0         0       0       0

 --------------------------------------------------------------------------------
 TIME STEP  27     NUMBER OF CONNECTED LAKES IS  4     TOTAL AREA =  0.975000000D+07

 READJUST STAGE OF LAKE   2 TO LAKE   2 SILL ELEVATION BY -0.40 TO  112.00
 READJUST STAGE OF LAKE   3 TO LAKE   3 SILL ELEVATION BY -0.17 TO  110.00
 READJUST STAGE OF LAKE   4 TO LAKE   3 SILL ELEVATION BY -0.57 TO  110.00


           SURFACE       SILL   WATER BUDGET  STAGE  CORRECTED   LAKE VOLUME
  LAKE       AREA      ELEVATION   STAGE   CORRECTION  STAGE     CORRECTION
 --------------------------------------------------------------------------------

   1     0.27500E+07 -99999.00    106.42      0.96    107.37    0.41306E+07
   2     0.37500E+07    112.00    112.40     -0.40    112.00   -0.14857E+07
   3     0.17500E+07    110.00    110.17     -0.17    110.00   -0.29593E+06
   4     0.15000E+07    108.00    110.57     -0.57    110.00   -0.85257E+06

          WARNING -- SUM OF INTERLAKE FLUXES   1496373. EXCEEDS10**6 OF THE TOTAL VOLUME



     0  LAKE CELLS ARE DRY.

 PERIOD     2     TIME STEP    27     TIME STEP LENGTH  7.6477E+00
 PERIOD TIME  1.4436E+02     TOTAL SIMULATION TIME  5.4436E+02


                 HYDROLOGIC BUDGET SUMMARIES FOR SIMULATED LAKES
     (ALL FLUID FLUXES ARE VOLUMES ADDED TO THE LAKE DURING PRESENT TIME STEP)
     -------------------------------------------------------------------------
 LAKE    STAGE         VOLUME     VOL.CHANGE      PRECIP     EVAPORATION        RUNOFF
   1   107.3742     3.0025E+07    5.2978E+06    2.4396E+05    2.1662E+05    0.0000E+00
   2   112.0000     2.8750E+07    0.0000E+00    3.3267E+05    2.9539E+05    0.0000E+00
   3   110.0000     1.5250E+07    1.0000E+00    1.5525E+05    1.3785E+05    0.0000E+00
   4   110.0000     1.4500E+07    0.0000E+00    1.3307E+05    1.1816E+05    0.0000E+00

            GROUND WATER            SURFACE WATER        WATER
 LAKE    INFLOW     OUTFLOW      INFLOW     OUTFLOW       USE
   1  1.1399E+06  0.0000E+00  0.0000E+00  0.0000E+00  0.0000E+00
   2  1.5255E+06  7.7041E+04  0.0000E+00  0.0000E+00  0.0000E+00
   3  3.0014E+05  2.1601E+04  0.0000E+00  0.0000E+00  0.0000E+00
   4  8.3806E+05  4.0670E+02  0.0000E+00  0.0000E+00  0.0000E+00

      CONNECTED LAKE   TIME-STEP         STAGE-CHANGE          PERCENT
 LAKE    INFLUX      SURFACE AREA   TIME STEP  CUMULATIVE    DISCREPANCY
   1   4.1306E+06     2.7500E+06   1.3824E+00 -7.6258E+00       0.000
   2  -1.4857E+06     3.7500E+06   0.0000E+00 -3.0000E+00       0.000
   3  -2.9593E+05     1.7500E+06   0.0000E+00 -5.0000E+00       0.000
   4  -8.5257E+05     1.5000E+06   0.0000E+00 -5.0000E+00       0.000
 --------------------------------------------------------------------------------



            CUMULATIVE HYDROLOGIC BUDGET SUMMARIES FOR SIMULATED LAKES
     (ALL FLUID FLUXES ARE SUMS OF VOLUMES ADDED TO THE LAKE SINCE INITIAL TIME)
     ---------------------------------------------------------------------------
 LAKE       PRECIP       EVAP       RUNOFF
   1     4.6052E+06  8.8082E+07  0.0000E+00
   2     5.8844E+06  6.1742E+07  0.0000E+00
   3     2.5054E+06  2.7324E+07  0.0000E+00
   4     2.5119E+06  2.6950E+07  0.0000E+00

            GROUND WATER            SURFACE WATER
 LAKE    INFLOW     OUTFLOW      INFLOW     OUTFLOW
   1  2.1841E+07  1.4874E+06  0.0000E+00  0.0000E+00
   2  5.1706E+07  3.2009E+06  0.0000E+00  0.0000E+00
   3  8.3068E+06  1.1249E+06  0.0000E+00  0.0000E+00
   4  3.2498E+07  4.9834E+05  0.0000E+00  0.0000E+00

         WATER    CONNECTED LAKE   CHANGE       PERCENT
 LAKE     USE         INFLUX       IN VOL.    DISCREPANCY
   1   0.0000E+00   1.1650E+07  -5.1474E+07      0.000
   2   0.0000E+00  -3.8978E+06  -1.1250E+07      0.000
   3   0.0000E+00   8.8871E+06  -8.7500E+06      0.000
   4   0.0000E+00  -1.5061E+07  -7.5000E+06      0.000
 --------------------------------------------------------------------------------


   1 CONNECTED LAKE SET

   4 LAKES:    1  2  3  4
 
 SOLVING FOR HEAD 
    14 ITERATIONS FOR TIME STEP  28 IN STRESS PERIOD    2

 HEAD/DRAWDOWN PRINTOUT FLAG = 0     TOTAL BUDGET PRINTOUT FLAG = 0
 CELL-BY-CELL FLOW TERM FLAG = 1

 OUTPUT FLAGS FOR ALL LAYERS ARE THE SAME:
   HEAD    DRAWDOWN  HEAD  DRAWDOWN
 PRINTOUT  PRINTOUT  SAVE    SAVE
 ----------------------------------
     0         0       0       0

 --------------------------------------------------------------------------------
 TIME STEP  28     NUMBER OF CONNECTED LAKES IS  4     TOTAL AREA =  0.137500000D+08

 READJUST STAGE OF LAKE   2 TO LAKE   2 SILL ELEVATION BY -0.42 TO  112.00
 READJUST STAGE OF LAKE   3 TO LAKE   3 SILL ELEVATION BY -0.19 TO  110.00
 READJUST STAGE OF LAKE   4 TO LAKE   3 SILL ELEVATION BY -0.60 TO  110.00


           SURFACE       SILL   WATER BUDGET  STAGE  CORRECTED   LAKE VOLUME
  LAKE       AREA      ELEVATION   STAGE   CORRECTION  STAGE     CORRECTION
 --------------------------------------------------------------------------------

   1     0.67500E+07 -99999.00    107.58      0.42    107.99    0.28030E+07
   2     0.37500E+07    112.00    112.42     -0.42    112.00   -0.15807E+07
   3     0.17500E+07    110.00    110.19     -0.19    110.00   -0.32717E+06
   4     0.15000E+07    108.00    110.60     -0.60    110.00   -0.89510E+06


     0  LAKE CELLS ARE DRY.

 PERIOD     2     TIME STEP    28     TIME STEP LENGTH  7.8771E+00
 PERIOD TIME  1.5224E+02     TOTAL SIMULATION TIME  5.5224E+02


                 HYDROLOGIC BUDGET SUMMARIES FOR SIMULATED LAKES
     (ALL FLUID FLUXES ARE VOLUMES ADDED TO THE LAKE DURING PRESENT TIME STEP)
     -------------------------------------------------------------------------
 LAKE    STAGE         VOLUME     VOL.CHANGE      PRECIP     EVAPORATION        RUNOFF
   1   107.9921     3.4196E+07    4.1710E+06    6.1678E+05    5.4766E+05    0.0000E+00
   2   112.0000     2.8750E+07    0.0000E+00    3.4266E+05    3.0425E+05    0.0000E+00
   3   110.0000     1.5250E+07    1.0000E+00    1.5991E+05    1.4199E+05    0.0000E+00
   4   110.0000     1.4500E+07    0.0000E+00    1.3706E+05    1.2170E+05    0.0000E+00

            GROUND WATER            SURFACE WATER        WATER
 LAKE    INFLOW     OUTFLOW      INFLOW     OUTFLOW       USE
   1  1.2990E+06  1.0068E+02  0.0000E+00  0.0000E+00  0.0000E+00
   2  1.6149E+06  7.2597E+04  0.0000E+00  0.0000E+00  0.0000E+00
   3  3.2752E+05  1.8269E+04  0.0000E+00  0.0000E+00  0.0000E+00
   4  8.8016E+05  4.2469E+02  0.0000E+00  0.0000E+00  0.0000E+00

      CONNECTED LAKE   TIME-STEP         STAGE-CHANGE          PERCENT
 LAKE    INFLUX      SURFACE AREA   TIME STEP  CUMULATIVE    DISCREPANCY
   1   2.8030E+06     6.7500E+06   6.1792E-01 -7.0079E+00       0.000
   2  -1.5807E+06     3.7500E+06   0.0000E+00 -3.0000E+00       0.000
   3  -3.2717E+05     1.7500E+06   0.0000E+00 -5.0000E+00       0.000
   4  -8.9510E+05     1.5000E+06   0.0000E+00 -5.0000E+00       0.000
 --------------------------------------------------------------------------------



            CUMULATIVE HYDROLOGIC BUDGET SUMMARIES FOR SIMULATED LAKES
     (ALL FLUID FLUXES ARE SUMS OF VOLUMES ADDED TO THE LAKE SINCE INITIAL TIME)
     ---------------------------------------------------------------------------
 LAKE       PRECIP       EVAP       RUNOFF
   1     5.2220E+06  8.8630E+07  0.0000E+00
   2     6.2270E+06  6.2046E+07  0.0000E+00
   3     2.6654E+06  2.7466E+07  0.0000E+00
   4     2.6490E+06  2.7072E+07  0.0000E+00

            GROUND WATER            SURFACE WATER
 LAKE    INFLOW     OUTFLOW      INFLOW     OUTFLOW
   1  2.3140E+07  1.4875E+06  0.0000E+00  0.0000E+00
   2  5.3321E+07  3.2735E+06  0.0000E+00  0.0000E+00
   3  8.6343E+06  1.1432E+06  0.0000E+00  0.0000E+00
   4  3.3378E+07  4.9877E+05  0.0000E+00  0.0000E+00

         WATER    CONNECTED LAKE   CHANGE       PERCENT
 LAKE     USE         INFLUX       IN VOL.    DISCREPANCY
   1   0.0000E+00   1.4453E+07  -4.7303E+07      0.000
   2   0.0000E+00  -5.4785E+06  -1.1250E+07      0.000
   3   0.0000E+00   8.5599E+06  -8.7500E+06      0.000
   4   0.0000E+00  -1.5957E+07  -7.5000E+06      0.000
 --------------------------------------------------------------------------------


   1 CONNECTED LAKE SET

   4 LAKES:    1  2  3  4
 
 SOLVING FOR HEAD 
    14 ITERATIONS FOR TIME STEP  29 IN STRESS PERIOD    2

 HEAD/DRAWDOWN PRINTOUT FLAG = 0     TOTAL BUDGET PRINTOUT FLAG = 0
 CELL-BY-CELL FLOW TERM FLAG = 1

 OUTPUT FLAGS FOR ALL LAYERS ARE THE SAME:
   HEAD    DRAWDOWN  HEAD  DRAWDOWN
 PRINTOUT  PRINTOUT  SAVE    SAVE
 ----------------------------------
     0         0       0       0

 --------------------------------------------------------------------------------
 TIME STEP  29     NUMBER OF CONNECTED LAKES IS  4     TOTAL AREA =  0.137500000D+08

 READJUST STAGE OF LAKE   2 TO LAKE   2 SILL ELEVATION BY -0.45 TO  112.00
 READJUST STAGE OF LAKE   3 TO LAKE   3 SILL ELEVATION BY -0.21 TO  110.00
 READJUST STAGE OF LAKE   4 TO LAKE   3 SILL ELEVATION BY -0.63 TO  110.00


           SURFACE       SILL   WATER BUDGET  STAGE  CORRECTED   LAKE VOLUME
  LAKE       AREA      ELEVATION   STAGE   CORRECTION  STAGE     CORRECTION
 --------------------------------------------------------------------------------

   1     0.67500E+07 -99999.00    108.20      0.44    108.64    0.29835E+07
   2     0.37500E+07    112.00    112.45     -0.45    112.00   -0.16830E+07
   3     0.17500E+07    110.00    110.21     -0.21    110.00   -0.36227E+06
   4     0.15000E+07    108.00    110.63     -0.63    110.00   -0.93832E+06


     0  LAKE CELLS ARE DRY.

 PERIOD     2     TIME STEP    29     TIME STEP LENGTH  8.1134E+00
 PERIOD TIME  1.6036E+02     TOTAL SIMULATION TIME  5.6036E+02


                 HYDROLOGIC BUDGET SUMMARIES FOR SIMULATED LAKES
     (ALL FLUID FLUXES ARE VOLUMES ADDED TO THE LAKE DURING PRESENT TIME STEP)
     -------------------------------------------------------------------------
 LAKE    STAGE         VOLUME     VOL.CHANGE      PRECIP     EVAPORATION        RUNOFF
   1   108.6416     3.8580E+07    4.3843E+06    6.3528E+05    5.6409E+05    0.0000E+00
   2   112.0000     2.8750E+07    0.0000E+00    3.5293E+05    3.1338E+05    0.0000E+00
   3   110.0000     1.5250E+07    1.0000E+00    1.6470E+05    1.4624E+05    0.0000E+00
   4   110.0000     1.4500E+07    0.0000E+00    1.4117E+05    1.2535E+05    0.0000E+00

            GROUND WATER            SURFACE WATER        WATER
 LAKE    INFLOW     OUTFLOW      INFLOW     OUTFLOW       USE
   1  1.3296E+06  0.0000E+00  0.0000E+00  0.0000E+00  0.0000E+00
   2  1.7077E+06  6.4324E+04  0.0000E+00  0.0000E+00  0.0000E+00
   3  3.5652E+05  1.2715E+04  0.0000E+00  0.0000E+00  0.0000E+00
   4  9.2294E+05  4.4181E+02  0.0000E+00  0.0000E+00  0.0000E+00

      CONNECTED LAKE   TIME-STEP         STAGE-CHANGE          PERCENT
 LAKE    INFLUX      SURFACE AREA   TIME STEP  CUMULATIVE    DISCREPANCY
   1   2.9835E+06     6.7500E+06   6.4954E-01 -6.3584E+00       0.000
   2  -1.6830E+06     3.7500E+06   0.0000E+00 -3.0000E+00       0.000
   3  -3.6227E+05     1.7500E+06   0.0000E+00 -5.0000E+00       0.000
   4  -9.3832E+05     1.5000E+06   0.0000E+00 -5.0000E+00       0.000
 --------------------------------------------------------------------------------



            CUMULATIVE HYDROLOGIC BUDGET SUMMARIES FOR SIMULATED LAKES
     (ALL FLUID FLUXES ARE SUMS OF VOLUMES ADDED TO THE LAKE SINCE INITIAL TIME)
     ---------------------------------------------------------------------------
 LAKE       PRECIP       EVAP       RUNOFF
   1     5.8573E+06  8.9194E+07  0.0000E+00
   2     6.5800E+06  6.2359E+07  0.0000E+00
   3     2.8301E+06  2.7613E+07  0.0000E+00
   4     2.7902E+06  2.7197E+07  0.0000E+00

            GROUND WATER            SURFACE WATER
 LAKE    INFLOW     OUTFLOW      INFLOW     OUTFLOW
   1  2.4469E+07  1.4875E+06  0.0000E+00  0.0000E+00
   2  5.5029E+07  3.3378E+06  0.0000E+00  0.0000E+00
   3  8.9908E+06  1.1559E+06  0.0000E+00  0.0000E+00
   4  3.4301E+07  4.9921E+05  0.0000E+00  0.0000E+00

         WATER    CONNECTED LAKE   CHANGE       PERCENT
 LAKE     USE         INFLUX       IN VOL.    DISCREPANCY
   1   0.0000E+00   1.7436E+07  -4.2919E+07      0.000
   2   0.0000E+00  -7.1615E+06  -1.1250E+07      0.000
   3   0.0000E+00   8.1977E+06  -8.7500E+06      0.000
   4   0.0000E+00  -1.6895E+07  -7.5000E+06      0.000
 --------------------------------------------------------------------------------


   1 CONNECTED LAKE SET

   4 LAKES:    1  2  3  4
 
 SOLVING FOR HEAD 
    14 ITERATIONS FOR TIME STEP  30 IN STRESS PERIOD    2

 HEAD/DRAWDOWN PRINTOUT FLAG = 1     TOTAL BUDGET PRINTOUT FLAG = 1
 CELL-BY-CELL FLOW TERM FLAG = 1

 OUTPUT FLAGS FOR EACH LAYER:
          HEAD    DRAWDOWN  HEAD  DRAWDOWN
 LAYER  PRINTOUT  PRINTOUT  SAVE    SAVE
 -----------------------------------------
    1       0         0       0       0
    2       0         0       0       0
    3       0         0       0       0
    4       0         0       0       0
    5       1         0       0       0

 --------------------------------------------------------------------------------
 TIME STEP  30     NUMBER OF CONNECTED LAKES IS  4     TOTAL AREA =  0.137500000D+08

 READJUST STAGE OF LAKE   2 TO LAKE   2 SILL ELEVATION BY -0.48 TO  112.00
 READJUST STAGE OF LAKE   3 TO LAKE   3 SILL ELEVATION BY -0.23 TO  110.00
 READJUST STAGE OF LAKE   4 TO LAKE   3 SILL ELEVATION BY -0.65 TO  110.00


           SURFACE       SILL   WATER BUDGET  STAGE  CORRECTED   LAKE VOLUME
  LAKE       AREA      ELEVATION   STAGE   CORRECTION  STAGE     CORRECTION
 --------------------------------------------------------------------------------

   1     0.67500E+07 -99999.00    108.85      0.47    109.32    0.31723E+07
   2     0.37500E+07    112.00    112.48     -0.48    112.00   -0.17901E+07
   3     0.17500E+07    110.00    110.23     -0.23    110.00   -0.39986E+06
   4     0.15000E+07    108.00    110.65     -0.65    110.00   -0.98237E+06


     0  LAKE CELLS ARE DRY.

 PERIOD     2     TIME STEP    30     TIME STEP LENGTH  8.3568E+00
 PERIOD TIME  1.6871E+02     TOTAL SIMULATION TIME  5.6871E+02


                 HYDROLOGIC BUDGET SUMMARIES FOR SIMULATED LAKES
     (ALL FLUID FLUXES ARE VOLUMES ADDED TO THE LAKE DURING PRESENT TIME STEP)
     -------------------------------------------------------------------------
 LAKE    STAGE         VOLUME     VOL.CHANGE      PRECIP     EVAPORATION        RUNOFF
   1   109.3172     4.3140E+07    4.5600E+06    6.5434E+05    5.8101E+05    0.0000E+00
   2   112.0000     2.8750E+07    2.0000E+00    3.6352E+05    3.2278E+05    0.0000E+00
   3   110.0000     1.5250E+07    0.0000E+00    1.6964E+05    1.5063E+05    0.0000E+00
   4   110.0000     1.4500E+07    0.0000E+00    1.4541E+05    1.2911E+05    0.0000E+00

            GROUND WATER            SURFACE WATER        WATER
 LAKE    INFLOW     OUTFLOW      INFLOW     OUTFLOW       USE
   1  1.3144E+06  0.0000E+00  0.0000E+00  0.0000E+00  0.0000E+00
   2  1.8039E+06  5.4563E+04  0.0000E+00  0.0000E+00  0.0000E+00
   3  3.8816E+05  7.3096E+03  0.0000E+00  0.0000E+00  0.0000E+00
   4  9.6653E+05  4.5907E+02  0.0000E+00  0.0000E+00  0.0000E+00

      CONNECTED LAKE   TIME-STEP         STAGE-CHANGE          PERCENT
 LAKE    INFLUX      SURFACE AREA   TIME STEP  CUMULATIVE    DISCREPANCY
   1   3.1723E+06     6.7500E+06   6.7557E-01 -5.6828E+00       0.000
   2  -1.7901E+06     3.7500E+06   0.0000E+00 -3.0000E+00       0.000
   3  -3.9986E+05     1.7500E+06   0.0000E+00 -5.0000E+00       0.000
   4  -9.8237E+05     1.5000E+06   0.0000E+00 -5.0000E+00       0.000
 --------------------------------------------------------------------------------



            CUMULATIVE HYDROLOGIC BUDGET SUMMARIES FOR SIMULATED LAKES
     (ALL FLUID FLUXES ARE SUMS OF VOLUMES ADDED TO THE LAKE SINCE INITIAL TIME)
     ---------------------------------------------------------------------------
 LAKE       PRECIP       EVAP       RUNOFF
   1     6.5116E+06  8.9775E+07  0.0000E+00
   2     6.9435E+06  6.2682E+07  0.0000E+00
   3     2.9997E+06  2.7763E+07  0.0000E+00
   4     2.9356E+06  2.7327E+07  0.0000E+00

            GROUND WATER            SURFACE WATER
 LAKE    INFLOW     OUTFLOW      INFLOW     OUTFLOW
   1  2.5784E+07  1.4875E+06  0.0000E+00  0.0000E+00
   2  5.6833E+07  3.3924E+06  0.0000E+00  0.0000E+00
   3  9.3790E+06  1.1632E+06  0.0000E+00  0.0000E+00
   4  3.5268E+07  4.9967E+05  0.0000E+00  0.0000E+00

         WATER    CONNECTED LAKE   CHANGE       PERCENT
 LAKE     USE         INFLUX       IN VOL.    DISCREPANCY
   1   0.0000E+00   2.0608E+07  -3.8359E+07      0.000
   2   0.0000E+00  -8.9516E+06  -1.1250E+07      0.000
   3   0.0000E+00   7.7978E+06  -8.7500E+06      0.000
   4   0.0000E+00  -1.7877E+07  -7.5000E+06      0.000
 --------------------------------------------------------------------------------


   1 CONNECTED LAKE SET

   4 LAKES:    1  2  3  4
1
              HEAD IN LAYER   5 AT END OF TIME STEP  30 IN STRESS PERIOD    2
  ---------------------------------------------------------------------------

          1      2      3      4      5      6      7      8      9     10
 .........................................................................
   1   160.0  158.9  157.3  155.8  154.6  153.9  153.1  152.3  151.5  150.8
   2   160.0  158.1  155.7  153.5  151.9  151.0  150.0  149.2  148.3  147.5
   3   160.0  157.3  153.6  150.3  148.1  146.8  145.6  144.5  143.5  142.6
   4   160.0  156.6  151.7  147.1  144.1  142.3  140.8  139.4  138.3  137.3
   5   160.0  155.9  149.8  143.4  139.0  136.3  134.2  132.5  131.1  130.1
   6   160.0  155.3  147.6  138.0  129.9  126.4  124.2  122.6  120.8  119.8
   7   160.0  155.0  146.2  132.7  113.6  112.9  112.9  113.4  109.4  109.2
   8   160.0  154.8  145.6  131.0  113.1  112.5  112.4  110.9  109.0  108.9
   9   160.0  154.7  145.4  130.5  113.0  112.5  112.4  109.2  108.9  108.8
  10   160.0  154.8  145.6  131.0  113.1  112.5  112.4  110.9  109.0  108.9
  11   160.0  155.0  146.2  132.7  113.6  112.9  112.9  113.4  109.4  109.2
  12   160.0  155.3  147.6  138.0  129.9  126.4  124.2  122.6  120.8  119.8
  13   160.0  155.9  149.8  143.4  139.0  136.3  134.2  132.5  131.1  130.1
  14   160.0  156.6  151.7  147.1  144.1  142.3  140.8  139.4  138.3  137.3
  15   160.0  157.3  153.6  150.3  148.1  146.8  145.6  144.5  143.5  142.6
  16   160.0  158.1  155.7  153.5  151.9  151.0  150.0  149.2  148.3  147.5
  17   160.0  158.9  157.3  155.8  154.6  153.9  153.1  152.3  151.5  150.8
1
              HEAD IN LAYER   5 AT END OF TIME STEP  30 IN STRESS PERIOD    2
  ---------------------------------------------------------------------------

         11     12     13     14     15     16     17     18     19     20
 .........................................................................
   1   150.0  149.2  148.5  147.7  146.9  146.1  145.4  144.6  143.9  142.7
   2   146.7  146.0  145.2  144.5  143.9  143.2  142.6  142.1  141.5  140.8
   3   141.8  141.2  140.5  140.0  139.6  139.2  138.9  138.6  138.5  138.5
   4   136.6  136.0  135.6  135.3  135.2  135.2  135.3  135.5  135.9  136.6
   5   129.4  129.1  129.1  129.4  129.9  130.5  131.2  132.0  133.0  134.7
   6   119.4  119.4  120.0  121.4  122.7  123.9  125.2  126.7  128.6  132.2
   7   109.2  109.2  109.4  113.9  115.8  116.9  118.4  119.1  121.3  129.2
   8   108.9  108.9  108.9  110.5  110.4  110.5  112.7  111.0  111.4  126.9
   9   108.8  108.8  108.9  109.0  110.2  110.3  110.5  110.7  111.1  126.2
  10   108.9  108.9  108.9  110.5  110.5  110.6  112.8  111.2  111.6  126.9
  11   109.2  109.2  109.4  113.9  115.8  117.0  118.4  119.2  121.4  129.2
  12   119.4  119.4  120.0  121.4  122.7  123.9  125.2  126.7  128.6  132.2
  13   129.4  129.1  129.1  129.4  129.9  130.5  131.2  132.0  133.0  134.7
  14   136.6  136.0  135.6  135.3  135.2  135.2  135.3  135.5  135.9  136.6
  15   141.8  141.2  140.5  140.0  139.6  139.2  138.9  138.6  138.5  138.5
  16   146.7  146.0  145.2  144.5  143.9  143.2  142.6  142.1  141.5  140.8
  17   150.0  149.2  148.5  147.7  146.9  146.1  145.4  144.6  143.9  142.7
1
              HEAD IN LAYER   5 AT END OF TIME STEP  30 IN STRESS PERIOD    2
  ---------------------------------------------------------------------------

         21     22
 .................
   1   141.1  140.0
   2   140.1  140.0
   3   139.1  140.0
   4   138.4  140.0
   5   137.7  140.0
   6   136.9  140.0
   7   136.2  140.0
   8   135.8  140.0
   9   135.6  140.0
  10   135.8  140.0
  11   136.2  140.0
  12   136.9  140.0
  13   137.7  140.0
  14   138.4  140.0
  15   139.1  140.0
  16   140.1  140.0
  17   141.1  140.0
1
  VOLUMETRIC BUDGET FOR ENTIRE MODEL AT END OF TIME STEP 30 IN STRESS PERIOD   2
  ------------------------------------------------------------------------------

     CUMULATIVE VOLUMES      L**3       RATES FOR THIS TIME STEP      L**3/T
     ------------------                 ------------------------

           IN:                                      IN:
           ---                                      ---
             STORAGE =    20821182.0000               STORAGE =           0.0000
       CONSTANT HEAD =   918574976.0000         CONSTANT HEAD =      519138.0938
                  ET =           0.0000                    ET =           0.0000
            RECHARGE =   286490400.0000              RECHARGE =     1653000.0000
     SPECIFIED FLOWS =           0.0000       SPECIFIED FLOWS =           0.0000
       LAKE  SEEPAGE =     6542731.5000         LAKE  SEEPAGE =        7458.7437

            TOTAL IN =  1232429312.0000              TOTAL IN =     2179596.7500

          OUT:                                     OUT:
          ----                                     ----
             STORAGE =   713018880.0000               STORAGE =      777054.2500
       CONSTANT HEAD =       19659.7578         CONSTANT HEAD =         934.6785
                  ET =   392133792.0000                    ET =      866294.6250
            RECHARGE =           0.0000              RECHARGE =           0.0000
     SPECIFIED FLOWS =           0.0000       SPECIFIED FLOWS =           0.0000
       LAKE  SEEPAGE =   127263480.0000         LAKE  SEEPAGE =      535251.5625

           TOTAL OUT =  1232435840.0000             TOTAL OUT =     2179535.0000

            IN - OUT =       -6528.0000              IN - OUT =          61.7500

 PERCENT DISCREPANCY =           0.00     PERCENT DISCREPANCY =           0.00






          TIME SUMMARY AT END OF TIME STEP  30 IN STRESS PERIOD    2
                    SECONDS     MINUTES      HOURS       DAYS        YEARS
                    -----------------------------------------------------------
   TIME STEP LENGTH 7.22032E+05  12034.      200.56      8.3568     2.28798E-02
 STRESS PERIOD TIME 1.45767E+07 2.42945E+05  4049.1      168.71     0.46191    
         TOTAL TIME 4.91367E+07 8.18945E+05  13649.      568.71      1.5570    
1
 
 SOLVING FOR HEAD 
    16 ITERATIONS FOR TIME STEP  31 IN STRESS PERIOD    2

 HEAD/DRAWDOWN PRINTOUT FLAG = 0     TOTAL BUDGET PRINTOUT FLAG = 0
 CELL-BY-CELL FLOW TERM FLAG = 1

 OUTPUT FLAGS FOR ALL LAYERS ARE THE SAME:
   HEAD    DRAWDOWN  HEAD  DRAWDOWN
 PRINTOUT  PRINTOUT  SAVE    SAVE
 ----------------------------------
     0         0       0       0

 --------------------------------------------------------------------------------
 TIME STEP  31     NUMBER OF CONNECTED LAKES IS  4     TOTAL AREA =  0.137500000D+08

 READJUST STAGE OF LAKE   2 TO LAKE   2 SILL ELEVATION BY -0.51 TO  112.00


           SURFACE       SILL   WATER BUDGET  STAGE  CORRECTED   LAKE VOLUME
  LAKE       AREA      ELEVATION   STAGE   CORRECTION  STAGE     CORRECTION
 --------------------------------------------------------------------------------

   1     0.67500E+07 -99999.00    109.52      0.49    110.01    0.33261E+07
   2     0.37500E+07    112.00    112.51     -0.51    112.00   -0.19022E+07
 --------------------------------------------------------------------------------

   3     0.17500E+07    110.00    110.25     -0.24    110.01   -0.41680E+06
 --------------------------------------------------------------------------------

   4     0.15000E+07    108.00    110.68     -0.67    110.01   -0.10072E+07


     0  LAKE CELLS ARE DRY.

 PERIOD     2     TIME STEP    31     TIME STEP LENGTH  8.6076E+00
 PERIOD TIME  1.7732E+02     TOTAL SIMULATION TIME  5.7732E+02


                 HYDROLOGIC BUDGET SUMMARIES FOR SIMULATED LAKES
     (ALL FLUID FLUXES ARE VOLUMES ADDED TO THE LAKE DURING PRESENT TIME STEP)
     -------------------------------------------------------------------------
 LAKE    STAGE         VOLUME     VOL.CHANGE      PRECIP     EVAPORATION        RUNOFF
   1   110.0134     4.7840E+07    4.6991E+06    6.7397E+05    5.9844E+05    0.0000E+00
   2   112.0000     2.8750E+07    0.0000E+00    3.7443E+05    3.3247E+05    0.0000E+00
   3   110.0134     1.5273E+07    2.3453E+04    1.7473E+05    1.5515E+05    0.0000E+00
   4   110.0134     1.4520E+07    2.0114E+04    1.4977E+05    1.3299E+05    0.0000E+00

            GROUND WATER            SURFACE WATER        WATER
 LAKE    INFLOW     OUTFLOW      INFLOW     OUTFLOW       USE
   1  1.2974E+06  0.0000E+00  0.0000E+00  0.0000E+00  0.0000E+00
   2  1.9035E+06  4.3295E+04  0.0000E+00  0.0000E+00  0.0000E+00
   3  4.2239E+05  1.7271E+03  0.0000E+00  0.0000E+00  0.0000E+00
   4  1.0110E+06  4.7578E+02  0.0000E+00  0.0000E+00  0.0000E+00

      CONNECTED LAKE   TIME-STEP         STAGE-CHANGE          PERCENT
 LAKE    INFLUX      SURFACE AREA   TIME STEP  CUMULATIVE    DISCREPANCY
   1   3.3261E+06     6.7500E+06   6.9618E-01 -4.9866E+00       0.000
   2  -1.9022E+06     3.7500E+06   0.0000E+00 -3.0000E+00       0.000
   3  -4.1680E+05     1.7500E+06   1.3401E-02 -4.9866E+00       0.000
   4  -1.0072E+06     1.5000E+06   1.3410E-02 -4.9866E+00       0.000
 --------------------------------------------------------------------------------



            CUMULATIVE HYDROLOGIC BUDGET SUMMARIES FOR SIMULATED LAKES
     (ALL FLUID FLUXES ARE SUMS OF VOLUMES ADDED TO THE LAKE SINCE INITIAL TIME)
     ---------------------------------------------------------------------------
 LAKE       PRECIP       EVAP       RUNOFF
   1     7.1856E+06  9.0373E+07  0.0000E+00
   2     7.3179E+06  6.3015E+07  0.0000E+00
   3     3.1744E+06  2.7918E+07  0.0000E+00
   4     3.0854E+06  2.7460E+07  0.0000E+00

            GROUND WATER            SURFACE WATER
 LAKE    INFLOW     OUTFLOW      INFLOW     OUTFLOW
   1  2.7081E+07  1.4875E+06  0.0000E+00  0.0000E+00
   2  5.8736E+07  3.4357E+06  0.0000E+00  0.0000E+00
   3  9.8014E+06  1.1649E+06  0.0000E+00  0.0000E+00
   4  3.6279E+07  5.0014E+05  0.0000E+00  0.0000E+00

         WATER    CONNECTED LAKE   CHANGE       PERCENT
 LAKE     USE         INFLUX       IN VOL.    DISCREPANCY
   1   0.0000E+00   2.3935E+07  -3.3660E+07      0.000
   2   0.0000E+00  -1.0854E+07  -1.1250E+07      0.000
   3   0.0000E+00   7.3810E+06  -8.7265E+06      0.000
   4   0.0000E+00  -1.8884E+07  -7.4799E+06      0.000
 --------------------------------------------------------------------------------


   1 CONNECTED LAKE SET

   4 LAKES:    1  2  3  4
 
 SOLVING FOR HEAD 
    16 ITERATIONS FOR TIME STEP  32 IN STRESS PERIOD    2

 HEAD/DRAWDOWN PRINTOUT FLAG = 0     TOTAL BUDGET PRINTOUT FLAG = 0
 CELL-BY-CELL FLOW TERM FLAG = 1

 OUTPUT FLAGS FOR ALL LAYERS ARE THE SAME:
   HEAD    DRAWDOWN  HEAD  DRAWDOWN
 PRINTOUT  PRINTOUT  SAVE    SAVE
 ----------------------------------
     0         0       0       0

 --------------------------------------------------------------------------------
 TIME STEP  32     NUMBER OF CONNECTED LAKES IS  4     TOTAL AREA =  0.137500000D+08

 READJUST STAGE OF LAKE   2 TO LAKE   2 SILL ELEVATION BY -0.54 TO  112.00


           SURFACE       SILL   WATER BUDGET  STAGE  CORRECTED   LAKE VOLUME
  LAKE       AREA      ELEVATION   STAGE   CORRECTION  STAGE     CORRECTION
 --------------------------------------------------------------------------------

   1     0.67500E+07 -99999.00    110.21      0.29    110.51    0.19713E+07
   2     0.37500E+07    112.00    112.54     -0.54    112.00   -0.20191E+07
 --------------------------------------------------------------------------------

   3     0.17500E+07    110.00    110.29      0.22    110.51    0.38047E+06
 --------------------------------------------------------------------------------

   4     0.15000E+07    108.00    110.73     -0.22    110.51   -0.33270E+06


     0  LAKE CELLS ARE DRY.

 PERIOD     2     TIME STEP    32     TIME STEP LENGTH  8.8658E+00
 PERIOD TIME  1.8619E+02     TOTAL SIMULATION TIME  5.8619E+02


                 HYDROLOGIC BUDGET SUMMARIES FOR SIMULATED LAKES
     (ALL FLUID FLUXES ARE VOLUMES ADDED TO THE LAKE DURING PRESENT TIME STEP)
     -------------------------------------------------------------------------
 LAKE    STAGE         VOLUME     VOL.CHANGE      PRECIP     EVAPORATION        RUNOFF
   1   110.5064     5.1167E+07    3.3276E+06    6.9419E+05    6.1639E+05    0.0000E+00
   2   112.0000     2.8750E+07    0.0000E+00    3.8566E+05    3.4244E+05    0.0000E+00
   3   110.5064     1.6136E+07    8.6270E+05    1.7998E+05    1.5981E+05    0.0000E+00
   4   110.5064     1.5259E+07    7.3946E+05    1.5426E+05    1.3698E+05    0.0000E+00

            GROUND WATER            SURFACE WATER        WATER
 LAKE    INFLOW     OUTFLOW      INFLOW     OUTFLOW       USE
   1  1.2785E+06  0.0000E+00  0.0000E+00  0.0000E+00  0.0000E+00
   2  2.0064E+06  3.0541E+04  0.0000E+00  0.0000E+00  0.0000E+00
   3  4.6207E+05  0.0000E+00  0.0000E+00  0.0000E+00  0.0000E+00
   4  1.0554E+06  4.9337E+02  0.0000E+00  0.0000E+00  0.0000E+00

      CONNECTED LAKE   TIME-STEP         STAGE-CHANGE          PERCENT
 LAKE    INFLUX      SURFACE AREA   TIME STEP  CUMULATIVE    DISCREPANCY
   1   1.9713E+06     6.7500E+06   4.9299E-01 -4.4936E+00       0.000
   2  -2.0191E+06     3.7500E+06   0.0000E+00 -3.0000E+00       0.000
   3   3.8047E+05     1.7500E+06   4.9298E-01 -4.4936E+00       0.000
   4  -3.3270E+05     1.5000E+06   4.9298E-01 -4.4936E+00       0.000
 --------------------------------------------------------------------------------



            CUMULATIVE HYDROLOGIC BUDGET SUMMARIES FOR SIMULATED LAKES
     (ALL FLUID FLUXES ARE SUMS OF VOLUMES ADDED TO THE LAKE SINCE INITIAL TIME)
     ---------------------------------------------------------------------------
 LAKE       PRECIP       EVAP       RUNOFF
   1     7.8798E+06  9.0990E+07  0.0000E+00
   2     7.7036E+06  6.3357E+07  0.0000E+00
   3     3.3544E+06  2.8078E+07  0.0000E+00
   4     3.2396E+06  2.7597E+07  0.0000E+00

            GROUND WATER            SURFACE WATER
 LAKE    INFLOW     OUTFLOW      INFLOW     OUTFLOW
   1  2.8360E+07  1.4875E+06  0.0000E+00  0.0000E+00
   2  6.0743E+07  3.4662E+06  0.0000E+00  0.0000E+00
   3  1.0263E+07  1.1649E+06  0.0000E+00  0.0000E+00
   4  3.7334E+07  5.0064E+05  0.0000E+00  0.0000E+00

         WATER    CONNECTED LAKE   CHANGE       PERCENT
 LAKE     USE         INFLUX       IN VOL.    DISCREPANCY
   1   0.0000E+00   2.5906E+07  -3.0332E+07      0.000
   2   0.0000E+00  -1.2873E+07  -1.1250E+07      0.000
   3   0.0000E+00   7.7615E+06  -7.8638E+06      0.000
   4   0.0000E+00  -1.9217E+07  -6.7404E+06      0.000
 --------------------------------------------------------------------------------


   1 CONNECTED LAKE SET

   4 LAKES:    1  2  3  4
 
 SOLVING FOR HEAD 
    16 ITERATIONS FOR TIME STEP  33 IN STRESS PERIOD    2

 HEAD/DRAWDOWN PRINTOUT FLAG = 0     TOTAL BUDGET PRINTOUT FLAG = 0
 CELL-BY-CELL FLOW TERM FLAG = 1

 OUTPUT FLAGS FOR ALL LAYERS ARE THE SAME:
   HEAD    DRAWDOWN  HEAD  DRAWDOWN
 PRINTOUT  PRINTOUT  SAVE    SAVE
 ----------------------------------
     0         0       0       0

 --------------------------------------------------------------------------------
 TIME STEP  33     NUMBER OF CONNECTED LAKES IS  4     TOTAL AREA =  0.137500000D+08

 READJUST STAGE OF LAKE   2 TO LAKE   2 SILL ELEVATION BY -0.57 TO  112.00


           SURFACE       SILL   WATER BUDGET  STAGE  CORRECTED   LAKE VOLUME
  LAKE       AREA      ELEVATION   STAGE   CORRECTION  STAGE     CORRECTION
 --------------------------------------------------------------------------------

   1     0.67500E+07 -99999.00    110.71      0.30    111.01    0.20412E+07
   2     0.37500E+07    112.00    112.57     -0.57    112.00   -0.21372E+07
 --------------------------------------------------------------------------------

   3     0.17500E+07    110.00    110.78      0.24    111.01    0.41140E+06
 --------------------------------------------------------------------------------

   4     0.15000E+07    108.00    111.23     -0.21    111.01   -0.31545E+06


     0  LAKE CELLS ARE DRY.

 PERIOD     2     TIME STEP    33     TIME STEP LENGTH  9.1318E+00
 PERIOD TIME  1.9532E+02     TOTAL SIMULATION TIME  5.9532E+02


                 HYDROLOGIC BUDGET SUMMARIES FOR SIMULATED LAKES
     (ALL FLUID FLUXES ARE VOLUMES ADDED TO THE LAKE DURING PRESENT TIME STEP)
     -------------------------------------------------------------------------
 LAKE    STAGE         VOLUME     VOL.CHANGE      PRECIP     EVAPORATION        RUNOFF
   1   111.0149     5.4599E+07    3.4323E+06    7.1502E+05    6.3489E+05    0.0000E+00
   2   112.0000     2.8750E+07    0.0000E+00    3.9723E+05    3.5271E+05    0.0000E+00
   3   111.0149     1.7026E+07    8.8986E+05    1.8537E+05    1.6460E+05    0.0000E+00
   4   111.0149     1.6022E+07    7.6274E+05    1.5889E+05    1.4109E+05    0.0000E+00

            GROUND WATER            SURFACE WATER        WATER
 LAKE    INFLOW     OUTFLOW      INFLOW     OUTFLOW       USE
   1  1.3109E+06  0.0000E+00  0.0000E+00  0.0000E+00  0.0000E+00
   2  2.1121E+06  1.9348E+04  0.0000E+00  0.0000E+00  0.0000E+00
   3  4.5769E+05  0.0000E+00  0.0000E+00  0.0000E+00  0.0000E+00
   4  1.0610E+06  5.7292E+02  0.0000E+00  0.0000E+00  0.0000E+00

      CONNECTED LAKE   TIME-STEP         STAGE-CHANGE          PERCENT
 LAKE    INFLUX      SURFACE AREA   TIME STEP  CUMULATIVE    DISCREPANCY
   1   2.0412E+06     6.7500E+06   5.0850E-01 -3.9851E+00       0.000
   2  -2.1372E+06     3.7500E+06   0.0000E+00 -3.0000E+00       0.000
   3   4.1140E+05     1.7500E+06   5.0850E-01 -3.9851E+00       0.000
   4  -3.1545E+05     1.5000E+06   5.0850E-01 -3.9851E+00       0.000
 --------------------------------------------------------------------------------



            CUMULATIVE HYDROLOGIC BUDGET SUMMARIES FOR SIMULATED LAKES
     (ALL FLUID FLUXES ARE SUMS OF VOLUMES ADDED TO THE LAKE SINCE INITIAL TIME)
     ---------------------------------------------------------------------------
 LAKE       PRECIP       EVAP       RUNOFF
   1     8.5948E+06  9.1625E+07  0.0000E+00
   2     8.1008E+06  6.3710E+07  0.0000E+00
   3     3.5398E+06  2.8243E+07  0.0000E+00
   4     3.3985E+06  2.7738E+07  0.0000E+00

            GROUND WATER            SURFACE WATER
 LAKE    INFLOW     OUTFLOW      INFLOW     OUTFLOW
   1  2.9671E+07  1.4875E+06  0.0000E+00  0.0000E+00
   2  6.2855E+07  3.4855E+06  0.0000E+00  0.0000E+00
   3  1.0721E+07  1.1649E+06  0.0000E+00  0.0000E+00
   4  3.8395E+07  5.0121E+05  0.0000E+00  0.0000E+00

         WATER    CONNECTED LAKE   CHANGE       PERCENT
 LAKE     USE         INFLUX       IN VOL.    DISCREPANCY
   1   0.0000E+00   2.7947E+07  -2.6900E+07      0.000
   2   0.0000E+00  -1.5010E+07  -1.1250E+07      0.000
   3   0.0000E+00   8.1729E+06  -6.9740E+06      0.000
   4   0.0000E+00  -1.9533E+07  -5.9777E+06      0.000
 --------------------------------------------------------------------------------


   1 CONNECTED LAKE SET

   4 LAKES:    1  2  3  4
 
 SOLVING FOR HEAD 
    16 ITERATIONS FOR TIME STEP  34 IN STRESS PERIOD    2

 HEAD/DRAWDOWN PRINTOUT FLAG = 0     TOTAL BUDGET PRINTOUT FLAG = 0
 CELL-BY-CELL FLOW TERM FLAG = 1

 OUTPUT FLAGS FOR ALL LAYERS ARE THE SAME:
   HEAD    DRAWDOWN  HEAD  DRAWDOWN
 PRINTOUT  PRINTOUT  SAVE    SAVE
 ----------------------------------
     0         0       0       0

 --------------------------------------------------------------------------------
 TIME STEP  34     NUMBER OF CONNECTED LAKES IS  4     TOTAL AREA =  0.137500000D+08

 READJUST STAGE OF LAKE   2 TO LAKE   2 SILL ELEVATION BY -0.60 TO  112.00


           SURFACE       SILL   WATER BUDGET  STAGE  CORRECTED   LAKE VOLUME
  LAKE       AREA      ELEVATION   STAGE   CORRECTION  STAGE     CORRECTION
 --------------------------------------------------------------------------------

   1     0.67500E+07 -99999.00    111.23      0.31    111.54    0.21213E+07
   2     0.37500E+07    112.00    112.60     -0.60    112.00   -0.22588E+07
 --------------------------------------------------------------------------------

   3     0.17500E+07    110.00    111.29      0.25    111.54    0.43834E+06
 --------------------------------------------------------------------------------

   4     0.15000E+07    108.00    111.74     -0.20    111.54   -0.30093E+06


     0  LAKE CELLS ARE DRY.

 PERIOD     2     TIME STEP    34     TIME STEP LENGTH  9.4057E+00
 PERIOD TIME  2.0472E+02     TOTAL SIMULATION TIME  6.0472E+02


                 HYDROLOGIC BUDGET SUMMARIES FOR SIMULATED LAKES
     (ALL FLUID FLUXES ARE VOLUMES ADDED TO THE LAKE DURING PRESENT TIME STEP)
     -------------------------------------------------------------------------
 LAKE    STAGE         VOLUME     VOL.CHANGE      PRECIP     EVAPORATION        RUNOFF
   1   111.5399     5.8143E+07    3.5438E+06    7.3647E+05    6.5393E+05    0.0000E+00
   2   112.0000     2.8750E+07    2.0000E+00    4.0915E+05    3.6330E+05    0.0000E+00
   3   111.5399     1.7945E+07    9.1878E+05    1.9094E+05    1.6954E+05    0.0000E+00
   4   111.5399     1.6810E+07    7.8752E+05    1.6366E+05    1.4532E+05    0.0000E+00

            GROUND WATER            SURFACE WATER        WATER
 LAKE    INFLOW     OUTFLOW      INFLOW     OUTFLOW       USE
   1  1.3399E+06  0.0000E+00  0.0000E+00  0.0000E+00  0.0000E+00
   2  2.2254E+06  1.2494E+04  0.0000E+00  0.0000E+00  0.0000E+00
   3  4.5905E+05  0.0000E+00  0.0000E+00  0.0000E+00  0.0000E+00
   4  1.0707E+06  6.3818E+02  0.0000E+00  0.0000E+00  0.0000E+00

      CONNECTED LAKE   TIME-STEP         STAGE-CHANGE          PERCENT
 LAKE    INFLUX      SURFACE AREA   TIME STEP  CUMULATIVE    DISCREPANCY
   1   2.1213E+06     6.7500E+06   5.2502E-01 -3.4601E+00       0.000
   2  -2.2588E+06     3.7500E+06   0.0000E+00 -3.0000E+00       0.000
   3   4.3834E+05     1.7500E+06   5.2502E-01 -3.4601E+00       0.000
   4  -3.0093E+05     1.5000E+06   5.2502E-01 -3.4601E+00       0.000
 --------------------------------------------------------------------------------



            CUMULATIVE HYDROLOGIC BUDGET SUMMARIES FOR SIMULATED LAKES
     (ALL FLUID FLUXES ARE SUMS OF VOLUMES ADDED TO THE LAKE SINCE INITIAL TIME)
     ---------------------------------------------------------------------------
 LAKE       PRECIP       EVAP       RUNOFF
   1     9.3313E+06  9.2279E+07  0.0000E+00
   2     8.5100E+06  6.4073E+07  0.0000E+00
   3     3.7307E+06  2.8412E+07  0.0000E+00
   4     3.5622E+06  2.7883E+07  0.0000E+00

            GROUND WATER            SURFACE WATER
 LAKE    INFLOW     OUTFLOW      INFLOW     OUTFLOW
   1  3.1011E+07  1.4875E+06  0.0000E+00  0.0000E+00
   2  6.5080E+07  3.4980E+06  0.0000E+00  0.0000E+00
   3  1.1180E+07  1.1649E+06  0.0000E+00  0.0000E+00
   4  3.9466E+07  5.0185E+05  0.0000E+00  0.0000E+00

         WATER    CONNECTED LAKE   CHANGE       PERCENT
 LAKE     USE         INFLUX       IN VOL.    DISCREPANCY
   1   0.0000E+00   3.0068E+07  -2.3356E+07      0.000
   2   0.0000E+00  -1.7269E+07  -1.1250E+07      0.000
   3   0.0000E+00   8.6112E+06  -6.0552E+06      0.000
   4   0.0000E+00  -1.9834E+07  -5.1901E+06      0.000
 --------------------------------------------------------------------------------


   1 CONNECTED LAKE SET

   4 LAKES:    1  2  3  4
 
 SOLVING FOR HEAD 
    17 ITERATIONS FOR TIME STEP  35 IN STRESS PERIOD    2

 HEAD/DRAWDOWN PRINTOUT FLAG = 0     TOTAL BUDGET PRINTOUT FLAG = 0
 CELL-BY-CELL FLOW TERM FLAG = 1

 OUTPUT FLAGS FOR ALL LAYERS ARE THE SAME:
   HEAD    DRAWDOWN  HEAD  DRAWDOWN
 PRINTOUT  PRINTOUT  SAVE    SAVE
 ----------------------------------
     0         0       0       0

 --------------------------------------------------------------------------------
 TIME STEP  35     NUMBER OF CONNECTED LAKES IS  4     TOTAL AREA =  0.137500000D+08



           SURFACE       SILL   WATER BUDGET  STAGE  CORRECTED   LAKE VOLUME
  LAKE       AREA      ELEVATION   STAGE   CORRECTION  STAGE     CORRECTION
 --------------------------------------------------------------------------------

   1     0.67500E+07 -99999.00    111.76      0.30    112.06    0.20569E+07
 --------------------------------------------------------------------------------

   2     0.37500E+07    112.00    112.64     -0.58    112.06   -0.21601E+07
 --------------------------------------------------------------------------------

   3     0.17500E+07    110.00    111.82      0.24    112.06    0.42416E+06
 --------------------------------------------------------------------------------

   4     0.15000E+07    108.00    112.27     -0.21    112.06   -0.32095E+06


     0  LAKE CELLS ARE DRY.

 PERIOD     2     TIME STEP    35     TIME STEP LENGTH  9.6879E+00
 PERIOD TIME  2.1441E+02     TOTAL SIMULATION TIME  6.1441E+02


                 HYDROLOGIC BUDGET SUMMARIES FOR SIMULATED LAKES
     (ALL FLUID FLUXES ARE VOLUMES ADDED TO THE LAKE DURING PRESENT TIME STEP)
     -------------------------------------------------------------------------
 LAKE    STAGE         VOLUME     VOL.CHANGE      PRECIP     EVAPORATION        RUNOFF
   1   112.0598     6.1652E+07    3.5091E+06    7.5856E+05    6.7355E+05    0.0000E+00
   2   112.0598     2.8974E+07    2.2418E+05    4.2142E+05    3.7419E+05    0.0000E+00
   3   112.0598     1.8854E+07    9.0978E+05    1.9666E+05    1.7462E+05    0.0000E+00
   4   112.0598     1.7589E+07    7.7981E+05    1.6857E+05    1.4968E+05    0.0000E+00

            GROUND WATER            SURFACE WATER        WATER
 LAKE    INFLOW     OUTFLOW      INFLOW     OUTFLOW       USE
   1  1.3672E+06  0.0000E+00  0.0000E+00  0.0000E+00  0.0000E+00
   2  2.3443E+06  7.2827E+03  0.0000E+00  0.0000E+00  0.0000E+00
   3  4.6358E+05  0.0000E+00  0.0000E+00  0.0000E+00  0.0000E+00
   4  1.0826E+06  6.9618E+02  0.0000E+00  0.0000E+00  0.0000E+00

      CONNECTED LAKE   TIME-STEP         STAGE-CHANGE          PERCENT
 LAKE    INFLUX      SURFACE AREA   TIME STEP  CUMULATIVE    DISCREPANCY
   1   2.0569E+06     6.7500E+06   5.1988E-01 -2.9402E+00       0.000
   2  -2.1601E+06     3.7500E+06   5.9781E-02 -2.9402E+00       0.000
   3   4.2416E+05     1.7500E+06   5.1988E-01 -2.9402E+00       0.000
   4  -3.2095E+05     1.5000E+06   5.1987E-01 -2.9402E+00       0.000
 --------------------------------------------------------------------------------



            CUMULATIVE HYDROLOGIC BUDGET SUMMARIES FOR SIMULATED LAKES
     (ALL FLUID FLUXES ARE SUMS OF VOLUMES ADDED TO THE LAKE SINCE INITIAL TIME)
     ---------------------------------------------------------------------------
 LAKE       PRECIP       EVAP       RUNOFF
   1     1.0090E+07  9.2952E+07  0.0000E+00
   2     8.9314E+06  6.4447E+07  0.0000E+00
   3     3.9274E+06  2.8587E+07  0.0000E+00
   4     3.7307E+06  2.8033E+07  0.0000E+00

            GROUND WATER            SURFACE WATER
 LAKE    INFLOW     OUTFLOW      INFLOW     OUTFLOW
   1  3.2378E+07  1.4875E+06  0.0000E+00  0.0000E+00
   2  6.7424E+07  3.5053E+06  0.0000E+00  0.0000E+00
   3  1.1644E+07  1.1649E+06  0.0000E+00  0.0000E+00
   4  4.0549E+07  5.0254E+05  0.0000E+00  0.0000E+00

         WATER    CONNECTED LAKE   CHANGE       PERCENT
 LAKE     USE         INFLUX       IN VOL.    DISCREPANCY
   1   0.0000E+00   3.2125E+07  -1.9847E+07      0.000
   2   0.0000E+00  -1.9429E+07  -1.1026E+07      0.000
   3   0.0000E+00   9.0354E+06  -5.1454E+06      0.000
   4   0.0000E+00  -2.0154E+07  -4.4103E+06      0.000
 --------------------------------------------------------------------------------


   1 CONNECTED LAKE SET

   4 LAKES:    1  2  3  4
 
 SOLVING FOR HEAD 
    17 ITERATIONS FOR TIME STEP  36 IN STRESS PERIOD    2

 HEAD/DRAWDOWN PRINTOUT FLAG = 0     TOTAL BUDGET PRINTOUT FLAG = 0
 CELL-BY-CELL FLOW TERM FLAG = 1

 OUTPUT FLAGS FOR ALL LAYERS ARE THE SAME:
   HEAD    DRAWDOWN  HEAD  DRAWDOWN
 PRINTOUT  PRINTOUT  SAVE    SAVE
 ----------------------------------
     0         0       0       0

 --------------------------------------------------------------------------------
 TIME STEP  36     NUMBER OF CONNECTED LAKES IS  4     TOTAL AREA =  0.137500000D+08



           SURFACE       SILL   WATER BUDGET  STAGE  CORRECTED   LAKE VOLUME
  LAKE       AREA      ELEVATION   STAGE   CORRECTION  STAGE     CORRECTION
 --------------------------------------------------------------------------------

   1     0.67500E+07 -99999.00    112.28      0.19    112.47    0.12633E+07
 --------------------------------------------------------------------------------

   2     0.37500E+07    112.00    112.73     -0.26    112.47   -0.97621E+06
 --------------------------------------------------------------------------------

   3     0.17500E+07    110.00    112.34      0.12    112.47    0.21804E+06
 --------------------------------------------------------------------------------

   4     0.15000E+07    108.00    112.80     -0.34    112.47   -0.50512E+06


     0  LAKE CELLS ARE DRY.

 PERIOD     2     TIME STEP    36     TIME STEP LENGTH  9.9785E+00
 PERIOD TIME  2.2439E+02     TOTAL SIMULATION TIME  6.2439E+02


                 HYDROLOGIC BUDGET SUMMARIES FOR SIMULATED LAKES
     (ALL FLUID FLUXES ARE VOLUMES ADDED TO THE LAKE DURING PRESENT TIME STEP)
     -------------------------------------------------------------------------
 LAKE    STAGE         VOLUME     VOL.CHANGE      PRECIP     EVAPORATION        RUNOFF
   1   112.4671     6.4402E+07    2.7493E+06    7.8132E+05    6.9376E+05    0.0000E+00
   2   112.4671     3.0501E+07    1.5274E+06    4.3407E+05    3.8542E+05    0.0000E+00
   3   112.4671     1.9567E+07    7.1281E+05    2.0256E+05    1.7986E+05    0.0000E+00
   4   112.4671     1.8200E+07    6.1098E+05    1.7363E+05    1.5417E+05    0.0000E+00

            GROUND WATER            SURFACE WATER        WATER
 LAKE    INFLOW     OUTFLOW      INFLOW     OUTFLOW       USE
   1  1.3985E+06  0.0000E+00  0.0000E+00  0.0000E+00  0.0000E+00
   2  2.4581E+06  3.0833E+03  0.0000E+00  0.0000E+00  0.0000E+00
   3  4.7206E+05  0.0000E+00  0.0000E+00  0.0000E+00  0.0000E+00
   4  1.0974E+06  7.4786E+02  0.0000E+00  0.0000E+00  0.0000E+00

      CONNECTED LAKE   TIME-STEP         STAGE-CHANGE          PERCENT
 LAKE    INFLUX      SURFACE AREA   TIME STEP  CUMULATIVE    DISCREPANCY
   1   1.2633E+06     6.7500E+06   4.0732E-01 -2.5329E+00       0.000
   2  -9.7621E+05     3.7500E+06   4.0731E-01 -2.5329E+00       0.000
   3   2.1804E+05     1.7500E+06   4.0732E-01 -2.5329E+00       0.000
   4  -5.0512E+05     1.5000E+06   4.0732E-01 -2.5329E+00       0.000
 --------------------------------------------------------------------------------



            CUMULATIVE HYDROLOGIC BUDGET SUMMARIES FOR SIMULATED LAKES
     (ALL FLUID FLUXES ARE SUMS OF VOLUMES ADDED TO THE LAKE SINCE INITIAL TIME)
     ---------------------------------------------------------------------------
 LAKE       PRECIP       EVAP       RUNOFF
   1     1.0871E+07  9.3646E+07  0.0000E+00
   2     9.3655E+06  6.4833E+07  0.0000E+00
   3     4.1299E+06  2.8767E+07  0.0000E+00
   4     3.9044E+06  2.8187E+07  0.0000E+00

            GROUND WATER            SURFACE WATER
 LAKE    INFLOW     OUTFLOW      INFLOW     OUTFLOW
   1  3.3776E+07  1.4875E+06  0.0000E+00  0.0000E+00
   2  6.9883E+07  3.5084E+06  0.0000E+00  0.0000E+00
   3  1.2116E+07  1.1649E+06  0.0000E+00  0.0000E+00
   4  4.1646E+07  5.0329E+05  0.0000E+00  0.0000E+00

         WATER    CONNECTED LAKE   CHANGE       PERCENT
 LAKE     USE         INFLUX       IN VOL.    DISCREPANCY
   1   0.0000E+00   3.3389E+07  -1.7097E+07      0.000
   2   0.0000E+00  -2.0405E+07  -9.4982E+06      0.000
   3   0.0000E+00   9.2534E+06  -4.4326E+06      0.000
   4   0.0000E+00  -2.0660E+07  -3.7994E+06      0.000
 --------------------------------------------------------------------------------


   1 CONNECTED LAKE SET

   4 LAKES:    1  2  3  4
 
 SOLVING FOR HEAD 
    17 ITERATIONS FOR TIME STEP  37 IN STRESS PERIOD    2

 HEAD/DRAWDOWN PRINTOUT FLAG = 0     TOTAL BUDGET PRINTOUT FLAG = 0
 CELL-BY-CELL FLOW TERM FLAG = 1

 OUTPUT FLAGS FOR ALL LAYERS ARE THE SAME:
   HEAD    DRAWDOWN  HEAD  DRAWDOWN
 PRINTOUT  PRINTOUT  SAVE    SAVE
 ----------------------------------
     0         0       0       0

 --------------------------------------------------------------------------------
 TIME STEP  37     NUMBER OF CONNECTED LAKES IS  4     TOTAL AREA =  0.137500000D+08



           SURFACE       SILL   WATER BUDGET  STAGE  CORRECTED   LAKE VOLUME
  LAKE       AREA      ELEVATION   STAGE   CORRECTION  STAGE     CORRECTION
 --------------------------------------------------------------------------------

   1     0.67500E+07 -99999.00    112.70      0.19    112.89    0.12830E+07
 --------------------------------------------------------------------------------

   2     0.37500E+07    112.00    113.15     -0.26    112.89   -0.98877E+06
 --------------------------------------------------------------------------------

   3     0.17500E+07    110.00    112.76      0.13    112.89    0.21898E+06
 --------------------------------------------------------------------------------

   4     0.15000E+07    108.00    113.23     -0.34    112.89   -0.51320E+06


     0  LAKE CELLS ARE DRY.

 PERIOD     2     TIME STEP    37     TIME STEP LENGTH  1.0278E+01
 PERIOD TIME  2.3467E+02     TOTAL SIMULATION TIME  6.3467E+02


                 HYDROLOGIC BUDGET SUMMARIES FOR SIMULATED LAKES
     (ALL FLUID FLUXES ARE VOLUMES ADDED TO THE LAKE DURING PRESENT TIME STEP)
     -------------------------------------------------------------------------
 LAKE    STAGE         VOLUME     VOL.CHANGE      PRECIP     EVAPORATION        RUNOFF
   1   112.8874     6.7239E+07    2.8371E+06    8.0476E+05    7.1457E+05    0.0000E+00
   2   112.8874     3.2077E+07    1.5762E+06    4.4709E+05    3.9698E+05    0.0000E+00
   3   112.8874     2.0303E+07    7.3555E+05    2.0864E+05    1.8526E+05    0.0000E+00
   4   112.8874     1.8831E+07    6.3046E+05    1.7883E+05    1.5879E+05    0.0000E+00

            GROUND WATER            SURFACE WATER        WATER
 LAKE    INFLOW     OUTFLOW      INFLOW     OUTFLOW       USE
   1  1.4639E+06  0.0000E+00  0.0000E+00  0.0000E+00  0.0000E+00
   2  2.5182E+06  3.3815E+03  0.0000E+00  0.0000E+00  0.0000E+00
   3  4.9318E+05  0.0000E+00  0.0000E+00  0.0000E+00  0.0000E+00
   4  1.1244E+06  7.8452E+02  0.0000E+00  0.0000E+00  0.0000E+00

      CONNECTED LAKE   TIME-STEP         STAGE-CHANGE          PERCENT
 LAKE    INFLUX      SURFACE AREA   TIME STEP  CUMULATIVE    DISCREPANCY
   1   1.2830E+06     6.7500E+06   4.2031E-01 -2.1126E+00       0.000
   2  -9.8877E+05     3.7500E+06   4.2031E-01 -2.1126E+00       0.000
   3   2.1898E+05     1.7500E+06   4.2031E-01 -2.1126E+00       0.000
   4  -5.1320E+05     1.5000E+06   4.2031E-01 -2.1126E+00       0.000
 --------------------------------------------------------------------------------



            CUMULATIVE HYDROLOGIC BUDGET SUMMARIES FOR SIMULATED LAKES
     (ALL FLUID FLUXES ARE SUMS OF VOLUMES ADDED TO THE LAKE SINCE INITIAL TIME)
     ---------------------------------------------------------------------------
 LAKE       PRECIP       EVAP       RUNOFF
   1     1.1676E+07  9.4361E+07  0.0000E+00
   2     9.8126E+06  6.5230E+07  0.0000E+00
   3     4.3386E+06  2.8952E+07  0.0000E+00
   4     4.0832E+06  2.8346E+07  0.0000E+00

            GROUND WATER            SURFACE WATER
 LAKE    INFLOW     OUTFLOW      INFLOW     OUTFLOW
   1  3.5240E+07  1.4875E+06  0.0000E+00  0.0000E+00
   2  7.2401E+07  3.5118E+06  0.0000E+00  0.0000E+00
   3  1.2609E+07  1.1649E+06  0.0000E+00  0.0000E+00
   4  4.2770E+07  5.0408E+05  0.0000E+00  0.0000E+00

         WATER    CONNECTED LAKE   CHANGE       PERCENT
 LAKE     USE         INFLUX       IN VOL.    DISCREPANCY
   1   0.0000E+00   3.4672E+07  -1.4260E+07      0.000
   2   0.0000E+00  -2.1394E+07  -7.9221E+06      0.000
   3   0.0000E+00   9.4724E+06  -3.6970E+06      0.000
   4   0.0000E+00  -2.1173E+07  -3.1689E+06      0.000
 --------------------------------------------------------------------------------


   1 CONNECTED LAKE SET

   4 LAKES:    1  2  3  4
 
 SOLVING FOR HEAD 
 ITERATION   13  LAKE    4  NEW STAGE 1.13666854E+02  DID NOT CONVERGE-- PREVIOUS INTERNAL ITERATION STAGE  1.13666909E+02

    36 ITERATIONS FOR TIME STEP  38 IN STRESS PERIOD    2

 HEAD/DRAWDOWN PRINTOUT FLAG = 0     TOTAL BUDGET PRINTOUT FLAG = 0
 CELL-BY-CELL FLOW TERM FLAG = 1

 OUTPUT FLAGS FOR ALL LAYERS ARE THE SAME:
   HEAD    DRAWDOWN  HEAD  DRAWDOWN
 PRINTOUT  PRINTOUT  SAVE    SAVE
 ----------------------------------
     0         0       0       0

 --------------------------------------------------------------------------------
 TIME STEP  38     NUMBER OF CONNECTED LAKES IS  4     TOTAL AREA =  0.137500000D+08



           SURFACE       SILL   WATER BUDGET  STAGE  CORRECTED   LAKE VOLUME
  LAKE       AREA      ELEVATION   STAGE   CORRECTION  STAGE     CORRECTION
 --------------------------------------------------------------------------------

   1     0.67500E+07 -99999.00    113.13      0.19    113.32    0.13041E+07
 --------------------------------------------------------------------------------

   2     0.37500E+07    112.00    113.59     -0.27    113.32   -0.10056E+07
 --------------------------------------------------------------------------------

   3     0.17500E+07    110.00    113.19      0.13    113.32    0.22149E+06
 --------------------------------------------------------------------------------

   4     0.15000E+07    108.00    113.67     -0.35    113.32   -0.51998E+06


     0  LAKE CELLS ARE DRY.

 PERIOD     2     TIME STEP    38     TIME STEP LENGTH  1.0586E+01
 PERIOD TIME  2.4525E+02     TOTAL SIMULATION TIME  6.4525E+02


                 HYDROLOGIC BUDGET SUMMARIES FOR SIMULATED LAKES
     (ALL FLUID FLUXES ARE VOLUMES ADDED TO THE LAKE DURING PRESENT TIME STEP)
     -------------------------------------------------------------------------
 LAKE    STAGE         VOLUME     VOL.CHANGE      PRECIP     EVAPORATION        RUNOFF
   1   113.3208     7.0164E+07    2.9252E+06    8.2890E+05    7.3601E+05    0.0000E+00
   2   113.3208     3.3702E+07    1.6251E+06    4.6050E+05    4.0889E+05    0.0000E+00
   3   113.3208     2.1061E+07    7.5837E+05    2.1490E+05    1.9082E+05    0.0000E+00
   4   113.3208     1.9481E+07    6.5003E+05    1.8420E+05    1.6356E+05    0.0000E+00

            GROUND WATER            SURFACE WATER        WATER
 LAKE    INFLOW     OUTFLOW      INFLOW     OUTFLOW       USE
   1  1.5282E+06  0.0000E+00  0.0000E+00  0.0000E+00  0.0000E+00
   2  2.5827E+06  3.6259E+03  0.0000E+00  0.0000E+00  0.0000E+00
   3  5.1280E+05  0.0000E+00  0.0000E+00  0.0000E+00  0.0000E+00
   4  1.1502E+06  8.2683E+02  0.0000E+00  0.0000E+00  0.0000E+00

      CONNECTED LAKE   TIME-STEP         STAGE-CHANGE          PERCENT
 LAKE    INFLUX      SURFACE AREA   TIME STEP  CUMULATIVE    DISCREPANCY
   1   1.3041E+06     6.7500E+06   4.3335E-01 -1.6792E+00       0.000
   2  -1.0056E+06     3.7500E+06   4.3335E-01 -1.6792E+00       0.000
   3   2.2149E+05     1.7500E+06   4.3335E-01 -1.6792E+00       0.000
   4  -5.1998E+05     1.5000E+06   4.3335E-01 -1.6792E+00       0.000
 --------------------------------------------------------------------------------



            CUMULATIVE HYDROLOGIC BUDGET SUMMARIES FOR SIMULATED LAKES
     (ALL FLUID FLUXES ARE SUMS OF VOLUMES ADDED TO THE LAKE SINCE INITIAL TIME)
     ---------------------------------------------------------------------------
 LAKE       PRECIP       EVAP       RUNOFF
   1     1.2505E+07  9.5097E+07  0.0000E+00
   2     1.0273E+07  6.5639E+07  0.0000E+00
   3     4.5535E+06  2.9143E+07  0.0000E+00
   4     4.2674E+06  2.8509E+07  0.0000E+00

            GROUND WATER            SURFACE WATER
 LAKE    INFLOW     OUTFLOW      INFLOW     OUTFLOW
   1  3.6768E+07  1.4875E+06  0.0000E+00  0.0000E+00
   2  7.4983E+07  3.5154E+06  0.0000E+00  0.0000E+00
   3  1.3122E+07  1.1649E+06  0.0000E+00  0.0000E+00
   4  4.3921E+07  5.0490E+05  0.0000E+00  0.0000E+00

         WATER    CONNECTED LAKE   CHANGE       PERCENT
 LAKE     USE         INFLUX       IN VOL.    DISCREPANCY
   1   0.0000E+00   3.5976E+07  -1.1335E+07      0.000
   2   0.0000E+00  -2.2400E+07  -6.2970E+06      0.000
   3   0.0000E+00   9.6939E+06  -2.9387E+06      0.000
   4   0.0000E+00  -2.1693E+07  -2.5189E+06      0.000
 --------------------------------------------------------------------------------


   1 CONNECTED LAKE SET

   4 LAKES:    1  2  3  4
 
 SOLVING FOR HEAD 
    17 ITERATIONS FOR TIME STEP  39 IN STRESS PERIOD    2

 HEAD/DRAWDOWN PRINTOUT FLAG = 0     TOTAL BUDGET PRINTOUT FLAG = 0
 CELL-BY-CELL FLOW TERM FLAG = 1

 OUTPUT FLAGS FOR ALL LAYERS ARE THE SAME:
   HEAD    DRAWDOWN  HEAD  DRAWDOWN
 PRINTOUT  PRINTOUT  SAVE    SAVE
 ----------------------------------
     0         0       0       0

 --------------------------------------------------------------------------------
 TIME STEP  39     NUMBER OF CONNECTED LAKES IS  4     TOTAL AREA =  0.137500000D+08



           SURFACE       SILL   WATER BUDGET  STAGE  CORRECTED   LAKE VOLUME
  LAKE       AREA      ELEVATION   STAGE   CORRECTION  STAGE     CORRECTION
 --------------------------------------------------------------------------------

   1     0.67500E+07 -99999.00    113.57      0.20    113.77    0.13257E+07
 --------------------------------------------------------------------------------

   2     0.37500E+07    112.00    114.04     -0.27    113.77   -0.10247E+07
 --------------------------------------------------------------------------------

   3     0.17500E+07    110.00    113.64      0.13    113.77    0.22483E+06
 --------------------------------------------------------------------------------

   4     0.15000E+07    108.00    114.12     -0.35    113.77   -0.52575E+06


     0  LAKE CELLS ARE DRY.

 PERIOD     2     TIME STEP    39     TIME STEP LENGTH  1.0904E+01
 PERIOD TIME  2.5616E+02     TOTAL SIMULATION TIME  6.5616E+02


                 HYDROLOGIC BUDGET SUMMARIES FOR SIMULATED LAKES
     (ALL FLUID FLUXES ARE VOLUMES ADDED TO THE LAKE DURING PRESENT TIME STEP)
     -------------------------------------------------------------------------
 LAKE    STAGE         VOLUME     VOL.CHANGE      PRECIP     EVAPORATION        RUNOFF
   1   113.7672     7.3178E+07    3.0137E+06    8.5377E+05    7.5809E+05    0.0000E+00
   2   113.7672     3.5377E+07    1.6742E+06    4.7431E+05    4.2116E+05    0.0000E+00
   3   113.7672     2.1842E+07    7.8130E+05    2.2135E+05    1.9654E+05    0.0000E+00
   4   113.7672     2.0151E+07    6.6969E+05    1.8973E+05    1.6846E+05    0.0000E+00

            GROUND WATER            SURFACE WATER        WATER
 LAKE    INFLOW     OUTFLOW      INFLOW     OUTFLOW       USE
   1  1.5923E+06  0.0000E+00  0.0000E+00  0.0000E+00  0.0000E+00
   2  2.6496E+06  3.8867E+03  0.0000E+00  0.0000E+00  0.0000E+00
   3  5.3167E+05  0.0000E+00  0.0000E+00  0.0000E+00  0.0000E+00
   4  1.1750E+06  8.7261E+02  0.0000E+00  0.0000E+00  0.0000E+00

      CONNECTED LAKE   TIME-STEP         STAGE-CHANGE          PERCENT
 LAKE    INFLUX      SURFACE AREA   TIME STEP  CUMULATIVE    DISCREPANCY
   1   1.3257E+06     6.7500E+06   4.4646E-01 -1.2328E+00       0.000
   2  -1.0247E+06     3.7500E+06   4.4646E-01 -1.2328E+00       0.000
   3   2.2483E+05     1.7500E+06   4.4646E-01 -1.2328E+00       0.000
   4  -5.2575E+05     1.5000E+06   4.4646E-01 -1.2328E+00       0.000
 --------------------------------------------------------------------------------



            CUMULATIVE HYDROLOGIC BUDGET SUMMARIES FOR SIMULATED LAKES
     (ALL FLUID FLUXES ARE SUMS OF VOLUMES ADDED TO THE LAKE SINCE INITIAL TIME)
     ---------------------------------------------------------------------------
 LAKE       PRECIP       EVAP       RUNOFF
   1     1.3359E+07  9.5855E+07  0.0000E+00
   2     1.0747E+07  6.6060E+07  0.0000E+00
   3     4.7748E+06  2.9339E+07  0.0000E+00
   4     4.4571E+06  2.8678E+07  0.0000E+00

            GROUND WATER            SURFACE WATER
 LAKE    INFLOW     OUTFLOW      INFLOW     OUTFLOW
   1  3.8361E+07  1.4875E+06  0.0000E+00  0.0000E+00
   2  7.7633E+07  3.5193E+06  0.0000E+00  0.0000E+00
   3  1.3653E+07  1.1649E+06  0.0000E+00  0.0000E+00
   4  4.5096E+07  5.0577E+05  0.0000E+00  0.0000E+00

         WATER    CONNECTED LAKE   CHANGE       PERCENT
 LAKE     USE         INFLUX       IN VOL.    DISCREPANCY
   1   0.0000E+00   3.7301E+07  -8.3215E+06      0.000
   2   0.0000E+00  -2.3424E+07  -4.6229E+06      0.000
   3   0.0000E+00   9.9187E+06  -2.1574E+06      0.000
   4   0.0000E+00  -2.2219E+07  -1.8492E+06      0.000
 --------------------------------------------------------------------------------


   1 CONNECTED LAKE SET

   4 LAKES:    1  2  3  4
 
 SOLVING FOR HEAD 
    18 ITERATIONS FOR TIME STEP  40 IN STRESS PERIOD    2

 HEAD/DRAWDOWN PRINTOUT FLAG = 1     TOTAL BUDGET PRINTOUT FLAG = 1
 CELL-BY-CELL FLOW TERM FLAG = 1

 OUTPUT FLAGS FOR EACH LAYER:
          HEAD    DRAWDOWN  HEAD  DRAWDOWN
 LAYER  PRINTOUT  PRINTOUT  SAVE    SAVE
 -----------------------------------------
    1       0         0       0       0
    2       0         0       0       0
    3       0         0       0       0
    4       0         0       0       0
    5       1         0       0       0

 --------------------------------------------------------------------------------
 TIME STEP  40     NUMBER OF CONNECTED LAKES IS  4     TOTAL AREA =  0.137500000D+08



           SURFACE       SILL   WATER BUDGET  STAGE  CORRECTED   LAKE VOLUME
  LAKE       AREA      ELEVATION   STAGE   CORRECTION  STAGE     CORRECTION
 --------------------------------------------------------------------------------

   1     0.67500E+07 -99999.00    114.03      0.20    114.23    0.13473E+07
 --------------------------------------------------------------------------------

   2     0.37500E+07    112.00    114.51     -0.28    114.23   -0.10455E+07
 --------------------------------------------------------------------------------

   3     0.17500E+07    110.00    114.10      0.13    114.23    0.22872E+06
 --------------------------------------------------------------------------------

   4     0.15000E+07    108.00    114.58     -0.35    114.23   -0.53055E+06


     0  LAKE CELLS ARE DRY.

 PERIOD     2     TIME STEP    40     TIME STEP LENGTH  1.1231E+01
 PERIOD TIME  2.6739E+02     TOTAL SIMULATION TIME  6.6739E+02


                 HYDROLOGIC BUDGET SUMMARIES FOR SIMULATED LAKES
     (ALL FLUID FLUXES ARE VOLUMES ADDED TO THE LAKE DURING PRESENT TIME STEP)
     -------------------------------------------------------------------------
 LAKE    STAGE         VOLUME     VOL.CHANGE      PRECIP     EVAPORATION        RUNOFF
   1   114.2268     7.6280E+07    3.1024E+06    8.7938E+05    7.8083E+05    0.0000E+00
   2   114.2268     3.7100E+07    1.7235E+06    4.8854E+05    4.3379E+05    0.0000E+00
   3   114.2268     2.2647E+07    8.0431E+05    2.2799E+05    2.0244E+05    0.0000E+00
   4   114.2268     2.0840E+07    6.8940E+05    1.9542E+05    1.7352E+05    0.0000E+00

            GROUND WATER            SURFACE WATER        WATER
 LAKE    INFLOW     OUTFLOW      INFLOW     OUTFLOW       USE
   1  1.6565E+06  0.0000E+00  0.0000E+00  0.0000E+00  0.0000E+00
   2  2.7184E+06  4.1651E+03  0.0000E+00  0.0000E+00  0.0000E+00
   3  5.5003E+05  0.0000E+00  0.0000E+00  0.0000E+00  0.0000E+00
   4  1.1990E+06  9.2085E+02  0.0000E+00  0.0000E+00  0.0000E+00

      CONNECTED LAKE   TIME-STEP         STAGE-CHANGE          PERCENT
 LAKE    INFLUX      SURFACE AREA   TIME STEP  CUMULATIVE    DISCREPANCY
   1   1.3473E+06     6.7500E+06   4.5960E-01 -7.7318E-01       0.000
   2  -1.0455E+06     3.7500E+06   4.5960E-01 -7.7319E-01       0.000
   3   2.2872E+05     1.7500E+06   4.5960E-01 -7.7319E-01       0.000
   4  -5.3055E+05     1.5000E+06   4.5960E-01 -7.7319E-01       0.000
 --------------------------------------------------------------------------------



            CUMULATIVE HYDROLOGIC BUDGET SUMMARIES FOR SIMULATED LAKES
     (ALL FLUID FLUXES ARE SUMS OF VOLUMES ADDED TO THE LAKE SINCE INITIAL TIME)
     ---------------------------------------------------------------------------
 LAKE       PRECIP       EVAP       RUNOFF
   1     1.4238E+07  9.6635E+07  0.0000E+00
   2     1.1236E+07  6.6494E+07  0.0000E+00
   3     5.0028E+06  2.9542E+07  0.0000E+00
   4     4.6525E+06  2.8851E+07  0.0000E+00

            GROUND WATER            SURFACE WATER
 LAKE    INFLOW     OUTFLOW      INFLOW     OUTFLOW
   1  4.0017E+07  1.4875E+06  0.0000E+00  0.0000E+00
   2  8.0352E+07  3.5235E+06  0.0000E+00  0.0000E+00
   3  1.4203E+07  1.1649E+06  0.0000E+00  0.0000E+00
   4  4.6295E+07  5.0670E+05  0.0000E+00  0.0000E+00

         WATER    CONNECTED LAKE   CHANGE       PERCENT
 LAKE     USE         INFLUX       IN VOL.    DISCREPANCY
   1   0.0000E+00   3.8649E+07  -5.2191E+06      0.000
   2   0.0000E+00  -2.4470E+07  -2.8994E+06      0.000
   3   0.0000E+00   1.0147E+07  -1.3531E+06      0.000
   4   0.0000E+00  -2.2749E+07  -1.1598E+06      0.000
 --------------------------------------------------------------------------------


   1 CONNECTED LAKE SET

   4 LAKES:    1  2  3  4
1
              HEAD IN LAYER   5 AT END OF TIME STEP  40 IN STRESS PERIOD    2
  ---------------------------------------------------------------------------

          1      2      3      4      5      6      7      8      9     10
 .........................................................................
   1   160.0  158.9  157.3  155.8  154.6  153.9  153.1  152.3  151.5  150.8
   2   160.0  158.3  156.1  154.1  152.6  151.7  150.8  150.0  149.1  148.3
   3   160.0  157.7  154.6  151.8  149.9  148.7  147.5  146.5  145.6  144.7
   4   160.0  157.2  153.1  149.3  146.8  145.2  143.8  142.6  141.5  140.6
   5   160.0  156.6  151.4  146.1  142.2  140.0  138.3  136.8  135.6  134.7
   6   160.0  156.0  149.3  140.8  132.9  129.7  127.8  126.8  125.5  124.8
   7   160.0  155.6  147.8  135.1  115.7  115.0  115.0  117.0  114.5  114.4
   8   160.0  155.4  147.1  133.2  115.1  114.5  114.5  114.7  114.1  114.0
   9   160.0  155.3  146.9  132.7  115.1  114.5  114.5  114.1  114.0  114.0
  10   160.0  155.4  147.1  133.2  115.1  114.5  114.5  114.7  114.1  114.0
  11   160.0  155.6  147.8  135.1  115.7  115.0  115.0  117.0  114.5  114.4
  12   160.0  156.0  149.3  140.8  132.9  129.7  127.8  126.8  125.5  124.8
  13   160.0  156.6  151.4  146.1  142.2  140.0  138.3  136.8  135.6  134.7
  14   160.0  157.2  153.1  149.3  146.8  145.2  143.8  142.6  141.5  140.6
  15   160.0  157.7  154.6  151.8  149.9  148.7  147.5  146.5  145.6  144.7
  16   160.0  158.3  156.1  154.1  152.6  151.7  150.8  150.0  149.1  148.3
  17   160.0  158.9  157.3  155.8  154.6  153.9  153.1  152.3  151.5  150.8
1
              HEAD IN LAYER   5 AT END OF TIME STEP  40 IN STRESS PERIOD    2
  ---------------------------------------------------------------------------

         11     12     13     14     15     16     17     18     19     20
 .........................................................................
   1   150.0  149.2  148.5  147.7  146.9  146.1  145.4  144.6  143.9  142.7
   2   147.5  146.8  146.0  145.3  144.7  144.0  143.3  142.7  142.1  141.3
   3   143.9  143.2  142.6  142.0  141.5  141.0  140.6  140.3  140.0  139.7
   4   139.9  139.3  138.8  138.4  138.2  138.0  137.9  137.8  137.9  138.2
   5   134.1  133.7  133.6  133.7  133.8  134.1  134.4  134.8  135.4  136.5
   6   124.4  124.4  124.8  125.9  126.9  127.8  128.8  129.8  131.2  134.0
   7   114.4  114.4  114.5  118.4  119.7  120.6  121.7  122.4  124.2  130.9
   8   114.0  114.0  114.1  115.0  114.3  114.4  116.1  114.9  115.2  128.8
   9   114.0  114.0  114.0  114.1  114.1  114.1  114.3  114.6  114.9  128.2
  10   114.0  114.0  114.1  115.0  114.4  114.5  116.1  115.0  115.4  128.8
  11   114.4  114.4  114.5  118.4  119.7  120.6  121.7  122.4  124.2  131.0
  12   124.4  124.4  124.8  125.9  126.9  127.8  128.8  129.9  131.2  134.0
  13   134.1  133.7  133.6  133.7  133.8  134.1  134.4  134.8  135.4  136.5
  14   139.9  139.3  138.8  138.4  138.2  138.0  137.9  137.8  137.9  138.2
  15   143.9  143.2  142.6  142.0  141.5  141.0  140.6  140.3  140.0  139.7
  16   147.5  146.8  146.0  145.3  144.7  144.0  143.3  142.7  142.1  141.3
  17   150.0  149.2  148.5  147.7  146.9  146.1  145.4  144.6  143.9  142.7
1
              HEAD IN LAYER   5 AT END OF TIME STEP  40 IN STRESS PERIOD    2
  ---------------------------------------------------------------------------

         21     22
 .................
   1   141.1  140.0
   2   140.3  140.0
   3   139.6  140.0
   4   139.0  140.0
   5   138.4  140.0
   6   137.6  140.0
   7   136.8  140.0
   8   136.4  140.0
   9   136.3  140.0
  10   136.4  140.0
  11   136.8  140.0
  12   137.6  140.0
  13   138.4  140.0
  14   139.0  140.0
  15   139.6  140.0
  16   140.3  140.0
  17   141.1  140.0
1
  VOLUMETRIC BUDGET FOR ENTIRE MODEL AT END OF TIME STEP 40 IN STRESS PERIOD   2
  ------------------------------------------------------------------------------

     CUMULATIVE VOLUMES      L**3       RATES FOR THIS TIME STEP      L**3/T
     ------------------                 ------------------------

           IN:                                      IN:
           ---                                      ---
             STORAGE =    20821182.0000               STORAGE =           0.0000
       CONSTANT HEAD =   963388672.0000         CONSTANT HEAD =      412469.5000
                  ET =           0.0000                    ET =           0.0000
            RECHARGE =   449601728.0000              RECHARGE =     1653000.0000
     SPECIFIED FLOWS =           0.0000       SPECIFIED FLOWS =           0.0000
       LAKE  SEEPAGE =     6682592.5000         LAKE  SEEPAGE =         452.8558

            TOTAL IN =  1440494208.0000              TOTAL IN =     2065922.3750

          OUT:                                     OUT:
          ----                                     ----
             STORAGE =   772414272.0000               STORAGE =      489152.3125
       CONSTANT HEAD =      201834.4062         CONSTANT HEAD =        2383.7373
                  ET =   487017568.0000                    ET =     1029093.8125
            RECHARGE =           0.0000              RECHARGE =           0.0000
     SPECIFIED FLOWS =           0.0000       SPECIFIED FLOWS =           0.0000
       LAKE  SEEPAGE =   180866752.0000         LAKE  SEEPAGE =      545272.6875

           TOTAL OUT =  1440500480.0000             TOTAL OUT =     2065902.5000

            IN - OUT =       -6272.0000              IN - OUT =          19.8750

 PERCENT DISCREPANCY =           0.00     PERCENT DISCREPANCY =           0.00






          TIME SUMMARY AT END OF TIME STEP  40 IN STRESS PERIOD    2
                    SECONDS     MINUTES      HOURS       DAYS        YEARS
                    -----------------------------------------------------------
   TIME STEP LENGTH 9.70350E+05  16172.      269.54      11.231     3.07485E-02
 STRESS PERIOD TIME 2.31023E+07 3.85039E+05  6417.3      267.39     0.73207    
         TOTAL TIME 5.76623E+07 9.61039E+05  16017.      667.39      1.8272    
1
 
 SOLVING FOR HEAD 
    18 ITERATIONS FOR TIME STEP  41 IN STRESS PERIOD    2

 HEAD/DRAWDOWN PRINTOUT FLAG = 0     TOTAL BUDGET PRINTOUT FLAG = 0
 CELL-BY-CELL FLOW TERM FLAG = 1

 OUTPUT FLAGS FOR ALL LAYERS ARE THE SAME:
   HEAD    DRAWDOWN  HEAD  DRAWDOWN
 PRINTOUT  PRINTOUT  SAVE    SAVE
 ----------------------------------
     0         0       0       0

 --------------------------------------------------------------------------------
 TIME STEP  41     NUMBER OF CONNECTED LAKES IS  4     TOTAL AREA =  0.137500000D+08



           SURFACE       SILL   WATER BUDGET  STAGE  CORRECTED   LAKE VOLUME
  LAKE       AREA      ELEVATION   STAGE   CORRECTION  STAGE     CORRECTION
 --------------------------------------------------------------------------------

   1     0.67500E+07 -99999.00    114.50      0.20    114.70    0.13691E+07
 --------------------------------------------------------------------------------

   2     0.37500E+07    112.00    114.98     -0.28    114.70   -0.10676E+07
 --------------------------------------------------------------------------------

   3     0.17500E+07    110.00    114.57      0.13    114.70    0.23293E+06
 --------------------------------------------------------------------------------

   4     0.15000E+07    108.00    115.06     -0.36    114.70   -0.53443E+06


     0  LAKE CELLS ARE DRY.

 PERIOD     2     TIME STEP    41     TIME STEP LENGTH  1.1568E+01
 PERIOD TIME  2.7896E+02     TOTAL SIMULATION TIME  6.7896E+02


                 HYDROLOGIC BUDGET SUMMARIES FOR SIMULATED LAKES
     (ALL FLUID FLUXES ARE VOLUMES ADDED TO THE LAKE DURING PRESENT TIME STEP)
     -------------------------------------------------------------------------
 LAKE    STAGE         VOLUME     VOL.CHANGE      PRECIP     EVAPORATION        RUNOFF
   1   114.6996     7.9471E+07    3.1913E+06    9.0576E+05    8.0425E+05    0.0000E+00
   2   114.6996     3.8873E+07    1.7729E+06    5.0320E+05    4.4681E+05    0.0000E+00
   3   114.6996     2.3474E+07    8.2736E+05    2.3483E+05    2.0851E+05    0.0000E+00
   4   114.6996     2.1549E+07    7.0917E+05    2.0128E+05    1.7872E+05    0.0000E+00

            GROUND WATER            SURFACE WATER        WATER
 LAKE    INFLOW     OUTFLOW      INFLOW     OUTFLOW       USE
   1  1.7208E+06  0.0000E+00  0.0000E+00  0.0000E+00  0.0000E+00
   2  2.7885E+06  4.4539E+03  0.0000E+00  0.0000E+00  0.0000E+00
   3  5.6812E+05  0.0000E+00  0.0000E+00  0.0000E+00  0.0000E+00
   4  1.2220E+06  9.7088E+02  0.0000E+00  0.0000E+00  0.0000E+00

      CONNECTED LAKE   TIME-STEP         STAGE-CHANGE          PERCENT
 LAKE    INFLUX      SURFACE AREA   TIME STEP  CUMULATIVE    DISCREPANCY
   1   1.3691E+06     6.7500E+06   4.7278E-01 -3.0041E-01       0.000
   2  -1.0676E+06     3.7500E+06   4.7278E-01 -3.0041E-01       0.000
   3   2.3293E+05     1.7500E+06   4.7278E-01 -3.0041E-01       0.000
   4  -5.3443E+05     1.5000E+06   4.7278E-01 -3.0041E-01       0.000
 --------------------------------------------------------------------------------



            CUMULATIVE HYDROLOGIC BUDGET SUMMARIES FOR SIMULATED LAKES
     (ALL FLUID FLUXES ARE SUMS OF VOLUMES ADDED TO THE LAKE SINCE INITIAL TIME)
     ---------------------------------------------------------------------------
 LAKE       PRECIP       EVAP       RUNOFF
   1     1.5144E+07  9.7440E+07  0.0000E+00
   2     1.1739E+07  6.6940E+07  0.0000E+00
   3     5.2376E+06  2.9750E+07  0.0000E+00
   4     4.8538E+06  2.9030E+07  0.0000E+00

            GROUND WATER            SURFACE WATER
 LAKE    INFLOW     OUTFLOW      INFLOW     OUTFLOW
   1  4.1738E+07  1.4875E+06  0.0000E+00  0.0000E+00
   2  8.3140E+07  3.5279E+06  0.0000E+00  0.0000E+00
   3  1.4772E+07  1.1649E+06  0.0000E+00  0.0000E+00
   4  4.7517E+07  5.0767E+05  0.0000E+00  0.0000E+00

         WATER    CONNECTED LAKE   CHANGE       PERCENT
 LAKE     USE         INFLUX       IN VOL.    DISCREPANCY
   1   0.0000E+00   4.0018E+07  -2.0278E+06      0.000
   2   0.0000E+00  -2.5537E+07  -1.1265E+06      0.000
   3   0.0000E+00   1.0380E+07  -5.2571E+05      0.000
   4   0.0000E+00  -2.3283E+07  -4.5062E+05      0.000
 --------------------------------------------------------------------------------


   1 CONNECTED LAKE SET

   4 LAKES:    1  2  3  4
 
 SOLVING FOR HEAD 
    18 ITERATIONS FOR TIME STEP  42 IN STRESS PERIOD    2

 HEAD/DRAWDOWN PRINTOUT FLAG = 0     TOTAL BUDGET PRINTOUT FLAG = 0
 CELL-BY-CELL FLOW TERM FLAG = 1

 OUTPUT FLAGS FOR ALL LAYERS ARE THE SAME:
   HEAD    DRAWDOWN  HEAD  DRAWDOWN
 PRINTOUT  PRINTOUT  SAVE    SAVE
 ----------------------------------
     0         0       0       0

 --------------------------------------------------------------------------------
 TIME STEP  42     NUMBER OF CONNECTED LAKES IS  4     TOTAL AREA =  0.137500000D+08



           SURFACE       SILL   WATER BUDGET  STAGE  CORRECTED   LAKE VOLUME
  LAKE       AREA      ELEVATION   STAGE   CORRECTION  STAGE     CORRECTION
 --------------------------------------------------------------------------------

   1     0.67500E+07 -99999.00    114.98      0.21    115.19    0.13906E+07
 --------------------------------------------------------------------------------

   2     0.37500E+07    112.00    115.48     -0.29    115.19   -0.10905E+07
 --------------------------------------------------------------------------------

   3     0.17500E+07    110.00    115.05      0.14    115.19    0.23735E+06
 --------------------------------------------------------------------------------

   4     0.15000E+07    108.00    115.54     -0.36    115.19   -0.53741E+06


     0  LAKE CELLS ARE DRY.

 PERIOD     2     TIME STEP    42     TIME STEP LENGTH  1.1915E+01
 PERIOD TIME  2.9087E+02     TOTAL SIMULATION TIME  6.9087E+02


                 HYDROLOGIC BUDGET SUMMARIES FOR SIMULATED LAKES
     (ALL FLUID FLUXES ARE VOLUMES ADDED TO THE LAKE DURING PRESENT TIME STEP)
     -------------------------------------------------------------------------
 LAKE    STAGE         VOLUME     VOL.CHANGE      PRECIP     EVAPORATION        RUNOFF
   1   115.1855     8.2751E+07    3.2801E+06    9.3293E+05    8.2838E+05    0.0000E+00
   2   115.1855     4.0695E+07    1.8222E+06    5.1830E+05    4.6021E+05    0.0000E+00
   3   115.1855     2.4324E+07    8.5038E+05    2.4187E+05    2.1477E+05    0.0000E+00
   4   115.1855     2.2278E+07    7.2889E+05    2.0732E+05    1.8408E+05    0.0000E+00

            GROUND WATER            SURFACE WATER        WATER
 LAKE    INFLOW     OUTFLOW      INFLOW     OUTFLOW       USE
   1  1.7850E+06  0.0000E+00  0.0000E+00  0.0000E+00  0.0000E+00
   2  2.8594E+06  4.7567E+03  0.0000E+00  0.0000E+00  0.0000E+00
   3  5.8592E+05  0.0000E+00  0.0000E+00  0.0000E+00  0.0000E+00
   4  1.2441E+06  1.0225E+03  0.0000E+00  0.0000E+00  0.0000E+00

      CONNECTED LAKE   TIME-STEP         STAGE-CHANGE          PERCENT
 LAKE    INFLUX      SURFACE AREA   TIME STEP  CUMULATIVE    DISCREPANCY
   1   1.3906E+06     6.7500E+06   4.8593E-01  1.8552E-01       0.000
   2  -1.0905E+06     3.7500E+06   4.8593E-01  1.8552E-01       0.000
   3   2.3735E+05     1.7500E+06   4.8593E-01  1.8552E-01       0.000
   4  -5.3741E+05     1.5000E+06   4.8593E-01  1.8552E-01       0.000
 --------------------------------------------------------------------------------



            CUMULATIVE HYDROLOGIC BUDGET SUMMARIES FOR SIMULATED LAKES
     (ALL FLUID FLUXES ARE SUMS OF VOLUMES ADDED TO THE LAKE SINCE INITIAL TIME)
     ---------------------------------------------------------------------------
 LAKE       PRECIP       EVAP       RUNOFF
   1     1.6077E+07  9.8268E+07  0.0000E+00
   2     1.2257E+07  6.7401E+07  0.0000E+00
   3     5.4795E+06  2.9965E+07  0.0000E+00
   4     5.0611E+06  2.9214E+07  0.0000E+00

            GROUND WATER            SURFACE WATER
 LAKE    INFLOW     OUTFLOW      INFLOW     OUTFLOW
   1  4.3523E+07  1.4875E+06  0.0000E+00  0.0000E+00
   2  8.5999E+07  3.5327E+06  0.0000E+00  0.0000E+00
   3  1.5358E+07  1.1649E+06  0.0000E+00  0.0000E+00
   4  4.8761E+07  5.0869E+05  0.0000E+00  0.0000E+00

         WATER    CONNECTED LAKE   CHANGE       PERCENT
 LAKE     USE         INFLUX       IN VOL.    DISCREPANCY
   1   0.0000E+00   4.1408E+07   1.2523E+06      0.000
   2   0.0000E+00  -2.6628E+07   6.9568E+05      0.000
   3   0.0000E+00   1.0618E+07   3.2466E+05      0.000
   4   0.0000E+00  -2.3821E+07   2.7828E+05      0.000
 --------------------------------------------------------------------------------


   1 CONNECTED LAKE SET

   4 LAKES:    1  2  3  4
 
 SOLVING FOR HEAD 
    18 ITERATIONS FOR TIME STEP  43 IN STRESS PERIOD    2

 HEAD/DRAWDOWN PRINTOUT FLAG = 0     TOTAL BUDGET PRINTOUT FLAG = 0
 CELL-BY-CELL FLOW TERM FLAG = 1

 OUTPUT FLAGS FOR ALL LAYERS ARE THE SAME:
   HEAD    DRAWDOWN  HEAD  DRAWDOWN
 PRINTOUT  PRINTOUT  SAVE    SAVE
 ----------------------------------
     0         0       0       0

 --------------------------------------------------------------------------------
 TIME STEP  43     NUMBER OF CONNECTED LAKES IS  4     TOTAL AREA =  0.137500000D+08



           SURFACE       SILL   WATER BUDGET  STAGE  CORRECTED   LAKE VOLUME
  LAKE       AREA      ELEVATION   STAGE   CORRECTION  STAGE     CORRECTION
 --------------------------------------------------------------------------------

   1     0.67500E+07 -99999.00    115.48      0.21    115.68    0.14118E+07
 --------------------------------------------------------------------------------

   2     0.37500E+07    112.00    115.98     -0.30    115.68   -0.11142E+07
 --------------------------------------------------------------------------------

   3     0.17500E+07    110.00    115.55      0.14    115.68    0.24191E+06
 --------------------------------------------------------------------------------

   4     0.15000E+07    108.00    116.04     -0.36    115.68   -0.53950E+06


     0  LAKE CELLS ARE DRY.

 PERIOD     2     TIME STEP    43     TIME STEP LENGTH  1.2272E+01
 PERIOD TIME  3.0314E+02     TOTAL SIMULATION TIME  7.0314E+02


                 HYDROLOGIC BUDGET SUMMARIES FOR SIMULATED LAKES
     (ALL FLUID FLUXES ARE VOLUMES ADDED TO THE LAKE DURING PRESENT TIME STEP)
     -------------------------------------------------------------------------
 LAKE    STAGE         VOLUME     VOL.CHANGE      PRECIP     EVAPORATION        RUNOFF
   1   115.6845     8.6120E+07    3.3683E+06    9.6092E+05    8.5323E+05    0.0000E+00
   2   115.6845     4.2566E+07    1.8712E+06    5.3385E+05    4.7402E+05    0.0000E+00
   3   115.6845     2.5198E+07    8.7324E+05    2.4913E+05    2.2121E+05    0.0000E+00
   4   115.6845     2.3027E+07    7.4849E+05    2.1354E+05    1.8961E+05    0.0000E+00

            GROUND WATER            SURFACE WATER        WATER
 LAKE    INFLOW     OUTFLOW      INFLOW     OUTFLOW       USE
   1  1.8488E+06  0.0000E+00  0.0000E+00  0.0000E+00  0.0000E+00
   2  2.9307E+06  5.0770E+03  0.0000E+00  0.0000E+00  0.0000E+00
   3  6.0341E+05  0.0000E+00  0.0000E+00  0.0000E+00  0.0000E+00
   4  1.2651E+06  1.0754E+03  0.0000E+00  0.0000E+00  0.0000E+00

      CONNECTED LAKE   TIME-STEP         STAGE-CHANGE          PERCENT
 LAKE    INFLUX      SURFACE AREA   TIME STEP  CUMULATIVE    DISCREPANCY
   1   1.4118E+06     6.7500E+06   4.9899E-01  6.8452E-01       0.000
   2  -1.1142E+06     3.7500E+06   4.9899E-01  6.8451E-01       0.000
   3   2.4191E+05     1.7500E+06   4.9899E-01  6.8452E-01       0.000
   4  -5.3950E+05     1.5000E+06   4.9899E-01  6.8451E-01       0.000
 --------------------------------------------------------------------------------



            CUMULATIVE HYDROLOGIC BUDGET SUMMARIES FOR SIMULATED LAKES
     (ALL FLUID FLUXES ARE SUMS OF VOLUMES ADDED TO THE LAKE SINCE INITIAL TIME)
     ---------------------------------------------------------------------------
 LAKE       PRECIP       EVAP       RUNOFF
   1     1.7038E+07  9.9121E+07  0.0000E+00
   2     1.2791E+07  6.7875E+07  0.0000E+00
   3     5.7286E+06  3.0186E+07  0.0000E+00
   4     5.2747E+06  2.9404E+07  0.0000E+00

            GROUND WATER            SURFACE WATER
 LAKE    INFLOW     OUTFLOW      INFLOW     OUTFLOW
   1  4.5372E+07  1.4875E+06  0.0000E+00  0.0000E+00
   2  8.8930E+07  3.5378E+06  0.0000E+00  0.0000E+00
   3  1.5961E+07  1.1649E+06  0.0000E+00  0.0000E+00
   4  5.0026E+07  5.0976E+05  0.0000E+00  0.0000E+00

         WATER    CONNECTED LAKE   CHANGE       PERCENT
 LAKE     USE         INFLUX       IN VOL.    DISCREPANCY
   1   0.0000E+00   4.2820E+07   4.6206E+06      0.000
   2   0.0000E+00  -2.7742E+07   2.5669E+06      0.000
   3   0.0000E+00   1.0860E+07   1.1979E+06      0.000
   4   0.0000E+00  -2.4360E+07   1.0268E+06      0.000
 --------------------------------------------------------------------------------


   1 CONNECTED LAKE SET

   4 LAKES:    1  2  3  4
 
 SOLVING FOR HEAD 
    18 ITERATIONS FOR TIME STEP  44 IN STRESS PERIOD    2

 HEAD/DRAWDOWN PRINTOUT FLAG = 0     TOTAL BUDGET PRINTOUT FLAG = 0
 CELL-BY-CELL FLOW TERM FLAG = 1

 OUTPUT FLAGS FOR ALL LAYERS ARE THE SAME:
   HEAD    DRAWDOWN  HEAD  DRAWDOWN
 PRINTOUT  PRINTOUT  SAVE    SAVE
 ----------------------------------
     0         0       0       0

 --------------------------------------------------------------------------------
 TIME STEP  44     NUMBER OF CONNECTED LAKES IS  4     TOTAL AREA =  0.137500000D+08



           SURFACE       SILL   WATER BUDGET  STAGE  CORRECTED   LAKE VOLUME
  LAKE       AREA      ELEVATION   STAGE   CORRECTION  STAGE     CORRECTION
 --------------------------------------------------------------------------------

   1     0.67500E+07 -99999.00    115.98      0.21    116.20    0.14327E+07
 --------------------------------------------------------------------------------

   2     0.37500E+07    112.00    116.50     -0.30    116.20   -0.11385E+07
 --------------------------------------------------------------------------------

   3     0.17500E+07    110.00    116.06      0.14    116.20    0.24653E+06
 --------------------------------------------------------------------------------

   4     0.15000E+07    108.00    116.56     -0.36    116.20   -0.54070E+06


     0  LAKE CELLS ARE DRY.

 PERIOD     2     TIME STEP    44     TIME STEP LENGTH  1.2640E+01
 PERIOD TIME  3.1578E+02     TOTAL SIMULATION TIME  7.1578E+02


                 HYDROLOGIC BUDGET SUMMARIES FOR SIMULATED LAKES
     (ALL FLUID FLUXES ARE VOLUMES ADDED TO THE LAKE DURING PRESENT TIME STEP)
     -------------------------------------------------------------------------
 LAKE    STAGE         VOLUME     VOL.CHANGE      PRECIP     EVAPORATION        RUNOFF
   1   116.1964     8.9575E+07    3.4556E+06    9.8975E+05    8.7883E+05    0.0000E+00
   2   116.1964     4.4486E+07    1.9197E+06    5.4986E+05    4.8824E+05    0.0000E+00
   3   116.1964     2.6094E+07    8.9586E+05    2.5660E+05    2.2784E+05    0.0000E+00
   4   116.1964     2.3794E+07    7.6788E+05    2.1994E+05    1.9530E+05    0.0000E+00

            GROUND WATER            SURFACE WATER        WATER
 LAKE    INFLOW     OUTFLOW      INFLOW     OUTFLOW       USE
   1  1.9119E+06  0.0000E+00  0.0000E+00  0.0000E+00  0.0000E+00
   2  3.0020E+06  5.4153E+03  0.0000E+00  0.0000E+00  0.0000E+00
   3  6.2057E+05  0.0000E+00  0.0000E+00  0.0000E+00  0.0000E+00
   4  1.2851E+06  1.1295E+03  0.0000E+00  0.0000E+00  0.0000E+00

      CONNECTED LAKE   TIME-STEP         STAGE-CHANGE          PERCENT
 LAKE    INFLUX      SURFACE AREA   TIME STEP  CUMULATIVE    DISCREPANCY
   1   1.4327E+06     6.7500E+06   5.1192E-01  1.1964E+00       0.000
   2  -1.1385E+06     3.7500E+06   5.1192E-01  1.1964E+00       0.000
   3   2.4653E+05     1.7500E+06   5.1192E-01  1.1964E+00       0.000
   4  -5.4070E+05     1.5000E+06   5.1192E-01  1.1964E+00       0.000
 --------------------------------------------------------------------------------



            CUMULATIVE HYDROLOGIC BUDGET SUMMARIES FOR SIMULATED LAKES
     (ALL FLUID FLUXES ARE SUMS OF VOLUMES ADDED TO THE LAKE SINCE INITIAL TIME)
     ---------------------------------------------------------------------------
 LAKE       PRECIP       EVAP       RUNOFF
   1     1.8027E+07  1.0000E+08  0.0000E+00
   2     1.3341E+07  6.8363E+07  0.0000E+00
   3     5.9852E+06  3.0414E+07  0.0000E+00
   4     5.4946E+06  2.9599E+07  0.0000E+00

            GROUND WATER            SURFACE WATER
 LAKE    INFLOW     OUTFLOW      INFLOW     OUTFLOW
   1  4.7284E+07  1.4875E+06  0.0000E+00  0.0000E+00
   2  9.1932E+07  3.5432E+06  0.0000E+00  0.0000E+00
   3  1.6582E+07  1.1649E+06  0.0000E+00  0.0000E+00
   4  5.1311E+07  5.1089E+05  0.0000E+00  0.0000E+00

         WATER    CONNECTED LAKE   CHANGE       PERCENT
 LAKE     USE         INFLUX       IN VOL.    DISCREPANCY
   1   0.0000E+00   4.4253E+07   8.0761E+06      0.000
   2   0.0000E+00  -2.8881E+07   4.4865E+06      0.000
   3   0.0000E+00   1.1106E+07   2.0938E+06      0.000
   4   0.0000E+00  -2.4901E+07   1.7946E+06      0.000
 --------------------------------------------------------------------------------


   1 CONNECTED LAKE SET

   4 LAKES:    1  2  3  4
 
 SOLVING FOR HEAD 
    20 ITERATIONS FOR TIME STEP  45 IN STRESS PERIOD    2

 HEAD/DRAWDOWN PRINTOUT FLAG = 0     TOTAL BUDGET PRINTOUT FLAG = 0
 CELL-BY-CELL FLOW TERM FLAG = 1

 OUTPUT FLAGS FOR ALL LAYERS ARE THE SAME:
   HEAD    DRAWDOWN  HEAD  DRAWDOWN
 PRINTOUT  PRINTOUT  SAVE    SAVE
 ----------------------------------
     0         0       0       0

 --------------------------------------------------------------------------------
 TIME STEP  45     NUMBER OF CONNECTED LAKES IS  4     TOTAL AREA =  0.137500000D+08



           SURFACE       SILL   WATER BUDGET  STAGE  CORRECTED   LAKE VOLUME
  LAKE       AREA      ELEVATION   STAGE   CORRECTION  STAGE     CORRECTION
 --------------------------------------------------------------------------------

   1     0.67500E+07 -99999.00    116.51      0.22    116.72    0.14531E+07
 --------------------------------------------------------------------------------

   2     0.37500E+07    112.00    117.03     -0.31    116.72   -0.11634E+07
 --------------------------------------------------------------------------------

   3     0.17500E+07    110.00    116.58      0.14    116.72    0.25120E+06
 --------------------------------------------------------------------------------

   4     0.15000E+07    108.00    117.08     -0.36    116.72   -0.54099E+06


     0  LAKE CELLS ARE DRY.

 PERIOD     2     TIME STEP    45     TIME STEP LENGTH  1.3020E+01
 PERIOD TIME  3.2880E+02     TOTAL SIMULATION TIME  7.2880E+02


                 HYDROLOGIC BUDGET SUMMARIES FOR SIMULATED LAKES
     (ALL FLUID FLUXES ARE VOLUMES ADDED TO THE LAKE DURING PRESENT TIME STEP)
     -------------------------------------------------------------------------
 LAKE    STAGE         VOLUME     VOL.CHANGE      PRECIP     EVAPORATION        RUNOFF
   1   116.7211     9.3117E+07    3.5417E+06    1.0194E+06    9.0519E+05    0.0000E+00
   2   116.7211     4.6454E+07    1.9675E+06    5.6636E+05    5.0289E+05    0.0000E+00
   3   116.7211     2.7012E+07    9.1820E+05    2.6430E+05    2.3468E+05    0.0000E+00
   4   116.7211     2.4581E+07    7.8703E+05    2.2654E+05    2.0115E+05    0.0000E+00

            GROUND WATER            SURFACE WATER        WATER
 LAKE    INFLOW     OUTFLOW      INFLOW     OUTFLOW       USE
   1  1.9743E+06  0.0000E+00  0.0000E+00  0.0000E+00  0.0000E+00
   2  3.0732E+06  5.7607E+03  0.0000E+00  0.0000E+00  0.0000E+00
   3  6.3738E+05  0.0000E+00  0.0000E+00  0.0000E+00  0.0000E+00
   4  1.3038E+06  1.1846E+03  0.0000E+00  0.0000E+00  0.0000E+00

      CONNECTED LAKE   TIME-STEP         STAGE-CHANGE          PERCENT
 LAKE    INFLUX      SURFACE AREA   TIME STEP  CUMULATIVE    DISCREPANCY
   1   1.4531E+06     6.7500E+06   5.2468E-01  1.7211E+00       0.000
   2  -1.1634E+06     3.7500E+06   5.2468E-01  1.7211E+00       0.000
   3   2.5120E+05     1.7500E+06   5.2468E-01  1.7211E+00       0.000
   4  -5.4099E+05     1.5000E+06   5.2468E-01  1.7211E+00       0.000
 --------------------------------------------------------------------------------



            CUMULATIVE HYDROLOGIC BUDGET SUMMARIES FOR SIMULATED LAKES
     (ALL FLUID FLUXES ARE SUMS OF VOLUMES ADDED TO THE LAKE SINCE INITIAL TIME)
     ---------------------------------------------------------------------------
 LAKE       PRECIP       EVAP       RUNOFF
   1     1.9047E+07  1.0091E+08  0.0000E+00
   2     1.3907E+07  6.8866E+07  0.0000E+00
   3     6.2496E+06  3.0649E+07  0.0000E+00
   4     5.7212E+06  2.9800E+07  0.0000E+00

            GROUND WATER            SURFACE WATER
 LAKE    INFLOW     OUTFLOW      INFLOW     OUTFLOW
   1  4.9258E+07  1.4875E+06  0.0000E+00  0.0000E+00
   2  9.5005E+07  3.5489E+06  0.0000E+00  0.0000E+00
   3  1.7219E+07  1.1649E+06  0.0000E+00  0.0000E+00
   4  5.2615E+07  5.1208E+05  0.0000E+00  0.0000E+00

         WATER    CONNECTED LAKE   CHANGE       PERCENT
 LAKE     USE         INFLUX       IN VOL.    DISCREPANCY
   1   0.0000E+00   4.5706E+07   1.1618E+07      0.000
   2   0.0000E+00  -3.0044E+07   6.4540E+06      0.000
   3   0.0000E+00   1.1357E+07   3.0120E+06      0.000
   4   0.0000E+00  -2.5442E+07   2.5817E+06      0.000
 --------------------------------------------------------------------------------


   1 CONNECTED LAKE SET

   4 LAKES:    1  2  3  4
 
 SOLVING FOR HEAD 
    20 ITERATIONS FOR TIME STEP  46 IN STRESS PERIOD    2

 HEAD/DRAWDOWN PRINTOUT FLAG = 0     TOTAL BUDGET PRINTOUT FLAG = 0
 CELL-BY-CELL FLOW TERM FLAG = 1

 OUTPUT FLAGS FOR ALL LAYERS ARE THE SAME:
   HEAD    DRAWDOWN  HEAD  DRAWDOWN
 PRINTOUT  PRINTOUT  SAVE    SAVE
 ----------------------------------
     0         0       0       0

 --------------------------------------------------------------------------------
 TIME STEP  46     NUMBER OF CONNECTED LAKES IS  4     TOTAL AREA =  0.137500000D+08



           SURFACE       SILL   WATER BUDGET  STAGE  CORRECTED   LAKE VOLUME
  LAKE       AREA      ELEVATION   STAGE   CORRECTION  STAGE     CORRECTION
 --------------------------------------------------------------------------------

   1     0.67500E+07 -99999.00    117.04      0.22    117.26    0.14730E+07
 --------------------------------------------------------------------------------

   2     0.37500E+07    112.00    117.58     -0.32    117.26   -0.11887E+07
 --------------------------------------------------------------------------------

   3     0.17500E+07    110.00    117.11      0.15    117.26    0.25595E+06
 --------------------------------------------------------------------------------

   4     0.15000E+07    108.00    117.62     -0.36    117.26   -0.54028E+06


     0  LAKE CELLS ARE DRY.

 PERIOD     2     TIME STEP    46     TIME STEP LENGTH  1.3410E+01
 PERIOD TIME  3.4221E+02     TOTAL SIMULATION TIME  7.4221E+02


                 HYDROLOGIC BUDGET SUMMARIES FOR SIMULATED LAKES
     (ALL FLUID FLUXES ARE VOLUMES ADDED TO THE LAKE DURING PRESENT TIME STEP)
     -------------------------------------------------------------------------
 LAKE    STAGE         VOLUME     VOL.CHANGE      PRECIP     EVAPORATION        RUNOFF
   1   117.2583     9.6743E+07    3.6261E+06    1.0500E+06    9.3235E+05    0.0000E+00
   2   117.2583     4.8468E+07    2.0144E+06    5.8335E+05    5.1797E+05    0.0000E+00
   3   117.2583     2.7952E+07    9.4006E+05    2.7223E+05    2.4172E+05    0.0000E+00
   4   117.2583     2.5387E+07    8.0577E+05    2.3334E+05    2.0719E+05    0.0000E+00

            GROUND WATER            SURFACE WATER        WATER
 LAKE    INFLOW     OUTFLOW      INFLOW     OUTFLOW       USE
   1  2.0354E+06  0.0000E+00  0.0000E+00  0.0000E+00  0.0000E+00
   2  3.1438E+06  6.1409E+03  0.0000E+00  0.0000E+00  0.0000E+00
   3  6.5360E+05  0.0000E+00  0.0000E+00  0.0000E+00  0.0000E+00
   4  1.3211E+06  1.2407E+03  0.0000E+00  0.0000E+00  0.0000E+00

      CONNECTED LAKE   TIME-STEP         STAGE-CHANGE          PERCENT
 LAKE    INFLUX      SURFACE AREA   TIME STEP  CUMULATIVE    DISCREPANCY
   1   1.4730E+06     6.7500E+06   5.3718E-01  2.2583E+00       0.000
   2  -1.1887E+06     3.7500E+06   5.3718E-01  2.2583E+00       0.000
   3   2.5595E+05     1.7500E+06   5.3718E-01  2.2583E+00       0.000
   4  -5.4028E+05     1.5000E+06   5.3718E-01  2.2583E+00       0.000
 --------------------------------------------------------------------------------



            CUMULATIVE HYDROLOGIC BUDGET SUMMARIES FOR SIMULATED LAKES
     (ALL FLUID FLUXES ARE SUMS OF VOLUMES ADDED TO THE LAKE SINCE INITIAL TIME)
     ---------------------------------------------------------------------------
 LAKE       PRECIP       EVAP       RUNOFF
   1     2.0097E+07  1.0184E+08  0.0000E+00
   2     1.4491E+07  6.9384E+07  0.0000E+00
   3     6.5218E+06  3.0891E+07  0.0000E+00
   4     5.9545E+06  3.0007E+07  0.0000E+00

            GROUND WATER            SURFACE WATER
 LAKE    INFLOW     OUTFLOW      INFLOW     OUTFLOW
   1  5.1293E+07  1.4875E+06  0.0000E+00  0.0000E+00
   2  9.8149E+07  3.5551E+06  0.0000E+00  0.0000E+00
   3  1.7872E+07  1.1649E+06  0.0000E+00  0.0000E+00
   4  5.3936E+07  5.1332E+05  0.0000E+00  0.0000E+00

         WATER    CONNECTED LAKE   CHANGE       PERCENT
 LAKE     USE         INFLUX       IN VOL.    DISCREPANCY
   1   0.0000E+00   4.7179E+07   1.5244E+07      0.000
   2   0.0000E+00  -3.1233E+07   8.4684E+06      0.000
   3   0.0000E+00   1.1613E+07   3.9520E+06      0.000
   4   0.0000E+00  -2.5982E+07   3.3874E+06      0.000
 --------------------------------------------------------------------------------


   1 CONNECTED LAKE SET

   4 LAKES:    1  2  3  4
 
 SOLVING FOR HEAD 
    20 ITERATIONS FOR TIME STEP  47 IN STRESS PERIOD    2

 HEAD/DRAWDOWN PRINTOUT FLAG = 0     TOTAL BUDGET PRINTOUT FLAG = 0
 CELL-BY-CELL FLOW TERM FLAG = 1

 OUTPUT FLAGS FOR ALL LAYERS ARE THE SAME:
   HEAD    DRAWDOWN  HEAD  DRAWDOWN
 PRINTOUT  PRINTOUT  SAVE    SAVE
 ----------------------------------
     0         0       0       0

 --------------------------------------------------------------------------------
 TIME STEP  47     NUMBER OF CONNECTED LAKES IS  4     TOTAL AREA =  0.137500000D+08



           SURFACE       SILL   WATER BUDGET  STAGE  CORRECTED   LAKE VOLUME
  LAKE       AREA      ELEVATION   STAGE   CORRECTION  STAGE     CORRECTION
 --------------------------------------------------------------------------------

   1     0.67500E+07 -99999.00    117.59      0.22    117.81    0.14922E+07
 --------------------------------------------------------------------------------

   2     0.37500E+07    112.00    118.13     -0.32    117.81   -0.12144E+07
 --------------------------------------------------------------------------------

   3     0.17500E+07    110.00    117.66      0.15    117.81    0.26078E+06
 --------------------------------------------------------------------------------

   4     0.15000E+07    108.00    118.17     -0.36    117.81   -0.53856E+06


     0  LAKE CELLS ARE DRY.

 PERIOD     2     TIME STEP    47     TIME STEP LENGTH  1.3813E+01
 PERIOD TIME  3.5603E+02     TOTAL SIMULATION TIME  7.5603E+02


                 HYDROLOGIC BUDGET SUMMARIES FOR SIMULATED LAKES
     (ALL FLUID FLUXES ARE VOLUMES ADDED TO THE LAKE DURING PRESENT TIME STEP)
     -------------------------------------------------------------------------
 LAKE    STAGE         VOLUME     VOL.CHANGE      PRECIP     EVAPORATION        RUNOFF
   1   117.8077     1.0045E+08    3.7084E+06    1.0815E+06    9.6032E+05    0.0000E+00
   2   117.8077     5.0528E+07    2.0601E+06    6.0085E+05    5.3351E+05    0.0000E+00
   3   117.8077     2.8913E+07    9.6142E+05    2.8040E+05    2.4897E+05    0.0000E+00
   4   117.8077     2.6211E+07    8.2407E+05    2.4034E+05    2.1340E+05    0.0000E+00

            GROUND WATER            SURFACE WATER        WATER
 LAKE    INFLOW     OUTFLOW      INFLOW     OUTFLOW       USE
   1  2.0950E+06  0.0000E+00  0.0000E+00  0.0000E+00  0.0000E+00
   2  3.2140E+06  6.8256E+03  0.0000E+00  0.0000E+00  0.0000E+00
   3  6.6921E+05  5.8147E-01  0.0000E+00  0.0000E+00  0.0000E+00
   4  1.3370E+06  1.2976E+03  0.0000E+00  0.0000E+00  0.0000E+00

      CONNECTED LAKE   TIME-STEP         STAGE-CHANGE          PERCENT
 LAKE    INFLUX      SURFACE AREA   TIME STEP  CUMULATIVE    DISCREPANCY
   1   1.4922E+06     6.7500E+06   5.4938E-01  2.8077E+00       0.000
   2  -1.2144E+06     3.7500E+06   5.4938E-01  2.8077E+00       0.000
   3   2.6078E+05     1.7500E+06   5.4938E-01  2.8077E+00       0.000
   4  -5.3856E+05     1.5000E+06   5.4938E-01  2.8077E+00       0.000
 --------------------------------------------------------------------------------



            CUMULATIVE HYDROLOGIC BUDGET SUMMARIES FOR SIMULATED LAKES
     (ALL FLUID FLUXES ARE SUMS OF VOLUMES ADDED TO THE LAKE SINCE INITIAL TIME)
     ---------------------------------------------------------------------------
 LAKE       PRECIP       EVAP       RUNOFF
   1     2.1178E+07  1.0280E+08  0.0000E+00
   2     1.5092E+07  6.9917E+07  0.0000E+00
   3     6.8022E+06  3.1140E+07  0.0000E+00
   4     6.1948E+06  3.0221E+07  0.0000E+00

            GROUND WATER            SURFACE WATER
 LAKE    INFLOW     OUTFLOW      INFLOW     OUTFLOW
   1  5.3388E+07  1.4875E+06  0.0000E+00  0.0000E+00
   2  1.0136E+08  3.5619E+06  0.0000E+00  0.0000E+00
   3  1.8542E+07  1.1649E+06  0.0000E+00  0.0000E+00
   4  5.5273E+07  5.1462E+05  0.0000E+00  0.0000E+00

         WATER    CONNECTED LAKE   CHANGE       PERCENT
 LAKE     USE         INFLUX       IN VOL.    DISCREPANCY
   1   0.0000E+00   4.8671E+07   1.8952E+07      0.000
   2   0.0000E+00  -3.2447E+07   1.0529E+07      0.000
   3   0.0000E+00   1.1874E+07   4.9134E+06      0.000
   4   0.0000E+00  -2.6521E+07   4.2115E+06      0.000
 --------------------------------------------------------------------------------


   1 CONNECTED LAKE SET

   4 LAKES:    1  2  3  4
 
 SOLVING FOR HEAD 
    20 ITERATIONS FOR TIME STEP  48 IN STRESS PERIOD    2

 HEAD/DRAWDOWN PRINTOUT FLAG = 0     TOTAL BUDGET PRINTOUT FLAG = 0
 CELL-BY-CELL FLOW TERM FLAG = 1

 OUTPUT FLAGS FOR ALL LAYERS ARE THE SAME:
   HEAD    DRAWDOWN  HEAD  DRAWDOWN
 PRINTOUT  PRINTOUT  SAVE    SAVE
 ----------------------------------
     0         0       0       0

 --------------------------------------------------------------------------------
 TIME STEP  48     NUMBER OF CONNECTED LAKES IS  4     TOTAL AREA =  0.137500000D+08



           SURFACE       SILL   WATER BUDGET  STAGE  CORRECTED   LAKE VOLUME
  LAKE       AREA      ELEVATION   STAGE   CORRECTION  STAGE     CORRECTION
 --------------------------------------------------------------------------------

   1     0.67500E+07 -99999.00    118.15      0.22    118.37    0.15106E+07
 --------------------------------------------------------------------------------

   2     0.37500E+07    112.00    118.70     -0.33    118.37   -0.12405E+07
 --------------------------------------------------------------------------------

   3     0.17500E+07    110.00    118.22      0.15    118.37    0.26571E+06
 --------------------------------------------------------------------------------

   4     0.15000E+07    108.00    118.73     -0.36    118.37   -0.53576E+06


     0  LAKE CELLS ARE DRY.

 PERIOD     2     TIME STEP    48     TIME STEP LENGTH  1.4227E+01
 PERIOD TIME  3.7025E+02     TOTAL SIMULATION TIME  7.7025E+02


                 HYDROLOGIC BUDGET SUMMARIES FOR SIMULATED LAKES
     (ALL FLUID FLUXES ARE VOLUMES ADDED TO THE LAKE DURING PRESENT TIME STEP)
     -------------------------------------------------------------------------
 LAKE    STAGE         VOLUME     VOL.CHANGE      PRECIP     EVAPORATION        RUNOFF
   1   118.3689     1.0424E+08    3.7886E+06    1.1140E+06    9.8913E+05    0.0000E+00
   2   118.3689     5.2633E+07    2.1047E+06    6.1887E+05    5.4952E+05    0.0000E+00
   3   118.3689     2.9895E+07    9.8221E+05    2.8881E+05    2.5644E+05    0.0000E+00
   4   118.3689     2.7053E+07    8.4189E+05    2.4755E+05    2.1981E+05    0.0000E+00

            GROUND WATER            SURFACE WATER        WATER
 LAKE    INFLOW     OUTFLOW      INFLOW     OUTFLOW       USE
   1  2.1532E+06  0.0000E+00  0.0000E+00  0.0000E+00  0.0000E+00
   2  3.2834E+06  7.5783E+03  0.0000E+00  0.0000E+00  0.0000E+00
   3  6.8414E+05  8.9714E+00  0.0000E+00  0.0000E+00  0.0000E+00
   4  1.3513E+06  1.3552E+03  0.0000E+00  0.0000E+00  0.0000E+00

      CONNECTED LAKE   TIME-STEP         STAGE-CHANGE          PERCENT
 LAKE    INFLUX      SURFACE AREA   TIME STEP  CUMULATIVE    DISCREPANCY
   1   1.5106E+06     6.7500E+06   5.6126E-01  3.3689E+00       0.000
   2  -1.2405E+06     3.7500E+06   5.6126E-01  3.3689E+00       0.000
   3   2.6571E+05     1.7500E+06   5.6126E-01  3.3689E+00       0.000
   4  -5.3576E+05     1.5000E+06   5.6126E-01  3.3689E+00       0.000
 --------------------------------------------------------------------------------



            CUMULATIVE HYDROLOGIC BUDGET SUMMARIES FOR SIMULATED LAKES
     (ALL FLUID FLUXES ARE SUMS OF VOLUMES ADDED TO THE LAKE SINCE INITIAL TIME)
     ---------------------------------------------------------------------------
 LAKE       PRECIP       EVAP       RUNOFF
   1     2.2292E+07  1.0379E+08  0.0000E+00
   2     1.5711E+07  7.0467E+07  0.0000E+00
   3     7.0910E+06  3.1396E+07  0.0000E+00
   4     6.4424E+06  3.0440E+07  0.0000E+00

            GROUND WATER            SURFACE WATER
 LAKE    INFLOW     OUTFLOW      INFLOW     OUTFLOW
   1  5.5542E+07  1.4875E+06  0.0000E+00  0.0000E+00
   2  1.0465E+08  3.5695E+06  0.0000E+00  0.0000E+00
   3  1.9226E+07  1.1649E+06  0.0000E+00  0.0000E+00
   4  5.6624E+07  5.1597E+05  0.0000E+00  0.0000E+00

         WATER    CONNECTED LAKE   CHANGE       PERCENT
 LAKE     USE         INFLUX       IN VOL.    DISCREPANCY
   1   0.0000E+00   5.0182E+07   2.2741E+07      0.000
   2   0.0000E+00  -3.3688E+07   1.2633E+07      0.000
   3   0.0000E+00   1.2140E+07   5.8956E+06      0.000
   4   0.0000E+00  -2.7057E+07   5.0534E+06      0.000
 --------------------------------------------------------------------------------


   1 CONNECTED LAKE SET

   4 LAKES:    1  2  3  4
 
 SOLVING FOR HEAD 
    20 ITERATIONS FOR TIME STEP  49 IN STRESS PERIOD    2

 HEAD/DRAWDOWN PRINTOUT FLAG = 0     TOTAL BUDGET PRINTOUT FLAG = 0
 CELL-BY-CELL FLOW TERM FLAG = 1

 OUTPUT FLAGS FOR ALL LAYERS ARE THE SAME:
   HEAD    DRAWDOWN  HEAD  DRAWDOWN
 PRINTOUT  PRINTOUT  SAVE    SAVE
 ----------------------------------
     0         0       0       0

 --------------------------------------------------------------------------------
 TIME STEP  49     NUMBER OF CONNECTED LAKES IS  4     TOTAL AREA =  0.137500000D+08



           SURFACE       SILL   WATER BUDGET  STAGE  CORRECTED   LAKE VOLUME
  LAKE       AREA      ELEVATION   STAGE   CORRECTION  STAGE     CORRECTION
 --------------------------------------------------------------------------------

   1     0.67500E+07 -99999.00    118.72      0.23    118.94    0.15288E+07
 --------------------------------------------------------------------------------

   2     0.37500E+07    112.00    119.28     -0.34    118.94   -0.12666E+07
 --------------------------------------------------------------------------------

   3     0.17500E+07    110.00    118.79      0.15    118.94    0.27006E+06
 --------------------------------------------------------------------------------

   4     0.15000E+07    108.00    119.30     -0.35    118.94   -0.53219E+06


     0  LAKE CELLS ARE DRY.

 PERIOD     2     TIME STEP    49     TIME STEP LENGTH  1.4654E+01
 PERIOD TIME  3.8491E+02     TOTAL SIMULATION TIME  7.8491E+02


                 HYDROLOGIC BUDGET SUMMARIES FOR SIMULATED LAKES
     (ALL FLUID FLUXES ARE VOLUMES ADDED TO THE LAKE DURING PRESENT TIME STEP)
     -------------------------------------------------------------------------
 LAKE    STAGE         VOLUME     VOL.CHANGE      PRECIP     EVAPORATION        RUNOFF
   1   118.9418     1.0811E+08    3.8670E+06    1.1474E+06    1.0188E+06    0.0000E+00
   2   118.9418     5.4781E+07    2.1482E+06    6.3744E+05    5.6600E+05    0.0000E+00
   3   118.9418     3.0898E+07    1.0025E+06    2.9747E+05    2.6413E+05    0.0000E+00
   4   118.9418     2.7913E+07    8.5931E+05    2.5498E+05    2.2640E+05    0.0000E+00

            GROUND WATER            SURFACE WATER        WATER
 LAKE    INFLOW     OUTFLOW      INFLOW     OUTFLOW       USE
   1  2.2096E+06  0.0000E+00  0.0000E+00  0.0000E+00  0.0000E+00
   2  3.3518E+06  8.4073E+03  0.0000E+00  0.0000E+00  0.0000E+00
   3  6.9915E+05  1.9428E+01  0.0000E+00  0.0000E+00  0.0000E+00
   4  1.3643E+06  1.4091E+03  0.0000E+00  0.0000E+00  0.0000E+00

      CONNECTED LAKE   TIME-STEP         STAGE-CHANGE          PERCENT
 LAKE    INFLUX      SURFACE AREA   TIME STEP  CUMULATIVE    DISCREPANCY
   1   1.5288E+06     6.7500E+06   5.7287E-01  3.9418E+00       0.000
   2  -1.2666E+06     3.7500E+06   5.7287E-01  3.9418E+00       0.000
   3   2.7006E+05     1.7500E+06   5.7287E-01  3.9418E+00       0.000
   4  -5.3219E+05     1.5000E+06   5.7287E-01  3.9418E+00       0.000
 --------------------------------------------------------------------------------



            CUMULATIVE HYDROLOGIC BUDGET SUMMARIES FOR SIMULATED LAKES
     (ALL FLUID FLUXES ARE SUMS OF VOLUMES ADDED TO THE LAKE SINCE INITIAL TIME)
     ---------------------------------------------------------------------------
 LAKE       PRECIP       EVAP       RUNOFF
   1     2.3440E+07  1.0481E+08  0.0000E+00
   2     1.6348E+07  7.1033E+07  0.0000E+00
   3     7.3885E+06  3.1660E+07  0.0000E+00
   4     6.6974E+06  3.0667E+07  0.0000E+00

            GROUND WATER            SURFACE WATER
 LAKE    INFLOW     OUTFLOW      INFLOW     OUTFLOW
   1  5.7751E+07  1.4875E+06  0.0000E+00  0.0000E+00
   2  1.0800E+08  3.5779E+06  0.0000E+00  0.0000E+00
   3  1.9925E+07  1.1649E+06  0.0000E+00  0.0000E+00
   4  5.7988E+07  5.1738E+05  0.0000E+00  0.0000E+00

         WATER    CONNECTED LAKE   CHANGE       PERCENT
 LAKE     USE         INFLUX       IN VOL.    DISCREPANCY
   1   0.0000E+00   5.1710E+07   2.6608E+07      0.000
   2   0.0000E+00  -3.4954E+07   1.4781E+07      0.000
   3   0.0000E+00   1.2410E+07   6.8982E+06      0.000
   4   0.0000E+00  -2.7589E+07   5.9127E+06      0.000
 --------------------------------------------------------------------------------


   1 CONNECTED LAKE SET

   4 LAKES:    1  2  3  4
 
 SOLVING FOR HEAD 
    22 ITERATIONS FOR TIME STEP  50 IN STRESS PERIOD    2

 MAXIMUM HEAD CHANGE FOR EACH ITERATION:

    HEAD CHANGE   HEAD CHANGE   HEAD CHANGE   HEAD CHANGE   HEAD CHANGE
  LAYER,ROW,COL LAYER,ROW,COL LAYER,ROW,COL LAYER,ROW,COL LAYER,ROW,COL
 ----------------------------------------------------------------------
     0.2560        0.1716        0.1320        0.6104E-01    0.7465E-01
  (  1,  8, 17) (  5,  7, 14) (  5, 10,  6) (  2,  8,  7) (  3, 10, 10)
     0.3275E-01    0.2152E-01    0.1121E-01    0.1324E-01    0.5435E-02
  (  3,  8, 15) (  5,  9, 15) (  3,  8,  7) (  3,  9, 15) (  2,  8,  7)
     0.6224E-02    0.3243E-02    0.2968E-02    0.1133E-02    0.1550E-02
  (  3,  9, 16) (  3,  8, 16) (  5,  9, 15) (  2,  8,  7) (  3,  9, 15)
     0.7241E-03    0.4748E-03    0.2399E-03    0.2862E-03    0.1064E-03
  (  3,  8, 15) (  5,  9, 15) (  3,  8, 16) (  3,  9, 15) (  2,  8,  7)
     0.1378E-03    0.7079E-04
  (  3,  9, 16) (  3,  8, 16)


 HEAD/DRAWDOWN PRINTOUT FLAG = 1     TOTAL BUDGET PRINTOUT FLAG = 1
 CELL-BY-CELL FLOW TERM FLAG = 1

 OUTPUT FLAGS FOR EACH LAYER:
          HEAD    DRAWDOWN  HEAD  DRAWDOWN
 LAYER  PRINTOUT  PRINTOUT  SAVE    SAVE
 -----------------------------------------
    1       0         0       0       0
    2       0         0       0       0
    3       0         0       0       0
    4       0         0       0       0
    5       1         0       0       0

 --------------------------------------------------------------------------------
 TIME STEP  50     NUMBER OF CONNECTED LAKES IS  4     TOTAL AREA =  0.137500000D+08



           SURFACE       SILL   WATER BUDGET  STAGE  CORRECTED   LAKE VOLUME
  LAKE       AREA      ELEVATION   STAGE   CORRECTION  STAGE     CORRECTION
 --------------------------------------------------------------------------------

   1     0.67500E+07 -99999.00    119.30      0.23    119.53    0.15466E+07
 --------------------------------------------------------------------------------

   2     0.37500E+07    112.00    119.87     -0.34    119.53   -0.12929E+07
 --------------------------------------------------------------------------------

   3     0.17500E+07    110.00    119.37      0.16    119.53    0.27399E+06
 --------------------------------------------------------------------------------

   4     0.15000E+07    108.00    119.88     -0.35    119.53   -0.52771E+06


     0  LAKE CELLS ARE DRY.

 PERIOD     2     TIME STEP    50     TIME STEP LENGTH  1.5093E+01
 PERIOD TIME  4.0000E+02     TOTAL SIMULATION TIME  8.0000E+02


                 HYDROLOGIC BUDGET SUMMARIES FOR SIMULATED LAKES
     (ALL FLUID FLUXES ARE VOLUMES ADDED TO THE LAKE DURING PRESENT TIME STEP)
     -------------------------------------------------------------------------
 LAKE    STAGE         VOLUME     VOL.CHANGE      PRECIP     EVAPORATION        RUNOFF
   1   119.5261     1.1205E+08    3.9437E+06    1.1818E+06    1.0494E+06    0.0000E+00
   2   119.5260     5.6972E+07    2.1908E+06    6.5656E+05    5.8298E+05    0.0000E+00
   3   119.5261     3.1920E+07    1.0224E+06    3.0640E+05    2.7206E+05    0.0000E+00
   4   119.5260     2.8789E+07    8.7636E+05    2.6262E+05    2.3319E+05    0.0000E+00

            GROUND WATER            SURFACE WATER        WATER
 LAKE    INFLOW     OUTFLOW      INFLOW     OUTFLOW       USE
   1  2.2647E+06  0.0000E+00  0.0000E+00  0.0000E+00  0.0000E+00
   2  3.4194E+06  9.2893E+03  0.0000E+00  0.0000E+00  0.0000E+00
   3  7.1412E+05  3.0821E+01  0.0000E+00  0.0000E+00  0.0000E+00
   4  1.3761E+06  1.4599E+03  0.0000E+00  0.0000E+00  0.0000E+00

      CONNECTED LAKE   TIME-STEP         STAGE-CHANGE          PERCENT
 LAKE    INFLUX      SURFACE AREA   TIME STEP  CUMULATIVE    DISCREPANCY
   1   1.5466E+06     6.7500E+06   5.8424E-01  4.5261E+00       0.000
   2  -1.2929E+06     3.7500E+06   5.8424E-01  4.5260E+00       0.000
   3   2.7399E+05     1.7500E+06   5.8424E-01  4.5261E+00       0.000
   4  -5.2771E+05     1.5000E+06   5.8424E-01  4.5260E+00       0.000
 --------------------------------------------------------------------------------



            CUMULATIVE HYDROLOGIC BUDGET SUMMARIES FOR SIMULATED LAKES
     (ALL FLUID FLUXES ARE SUMS OF VOLUMES ADDED TO THE LAKE SINCE INITIAL TIME)
     ---------------------------------------------------------------------------
 LAKE       PRECIP       EVAP       RUNOFF
   1     2.4621E+07  1.0586E+08  0.0000E+00
   2     1.7005E+07  7.1616E+07  0.0000E+00
   3     7.6948E+06  3.1932E+07  0.0000E+00
   4     6.9600E+06  3.0900E+07  0.0000E+00

            GROUND WATER            SURFACE WATER
 LAKE    INFLOW     OUTFLOW      INFLOW     OUTFLOW
   1  6.0016E+07  1.4875E+06  0.0000E+00  0.0000E+00
   2  1.1142E+08  3.5872E+06  0.0000E+00  0.0000E+00
   3  2.0639E+07  1.1650E+06  0.0000E+00  0.0000E+00
   4  5.9365E+07  5.1884E+05  0.0000E+00  0.0000E+00

         WATER    CONNECTED LAKE   CHANGE       PERCENT
 LAKE     USE         INFLUX       IN VOL.    DISCREPANCY
   1   0.0000E+00   5.3257E+07   3.0552E+07      0.000
   2   0.0000E+00  -3.6247E+07   1.6972E+07      0.000
   3   0.0000E+00   1.2684E+07   7.9206E+06      0.000
   4   0.0000E+00  -2.8117E+07   6.7891E+06      0.000
 --------------------------------------------------------------------------------


   1 CONNECTED LAKE SET

   4 LAKES:    1  2  3  4
1
              HEAD IN LAYER   5 AT END OF TIME STEP  50 IN STRESS PERIOD    2
  ---------------------------------------------------------------------------

          1      2      3      4      5      6      7      8      9     10
 .........................................................................
   1   160.0  158.9  157.3  155.8  154.6  153.9  153.1  152.3  151.5  150.8
   2   160.0  158.4  156.3  154.4  153.1  152.2  151.3  150.5  149.7  148.9
   3   160.0  157.9  155.2  152.6  150.9  149.8  148.8  147.9  147.0  146.2
   4   160.0  157.5  154.0  150.7  148.4  147.1  145.9  144.8  143.9  143.1
   5   160.0  157.0  152.5  147.8  144.5  142.7  141.2  140.1  139.1  138.3
   6   160.0  156.4  150.5  143.1  136.3  133.6  132.1  131.2  130.2  129.6
   7   160.0  156.0  149.1  138.1  120.9  120.3  120.3  121.9  119.7  119.6
   8   160.0  155.9  148.5  136.4  120.4  119.9  119.9  119.7  119.3  119.3
   9   160.0  155.8  148.3  135.9  120.4  119.9  119.9  119.4  119.3  119.3
  10   160.0  155.9  148.5  136.4  120.4  119.9  119.9  119.7  119.3  119.3
  11   160.0  156.0  149.1  138.1  120.9  120.3  120.3  121.9  119.7  119.6
  12   160.0  156.4  150.5  143.1  136.3  133.6  132.1  131.2  130.2  129.6
  13   160.0  157.0  152.5  147.8  144.5  142.7  141.2  140.1  139.1  138.3
  14   160.0  157.5  154.0  150.7  148.4  147.1  145.9  144.8  143.9  143.1
  15   160.0  157.9  155.2  152.6  150.9  149.8  148.8  147.9  147.0  146.2
  16   160.0  158.4  156.3  154.4  153.1  152.2  151.3  150.5  149.7  148.9
  17   160.0  158.9  157.3  155.8  154.6  153.9  153.1  152.3  151.5  150.8
1
              HEAD IN LAYER   5 AT END OF TIME STEP  50 IN STRESS PERIOD    2
  ---------------------------------------------------------------------------

         11     12     13     14     15     16     17     18     19     20
 .........................................................................
   1   150.0  149.2  148.5  147.7  146.9  146.1  145.4  144.6  143.9  142.7
   2   148.1  147.3  146.6  145.9  145.2  144.5  143.8  143.1  142.5  141.5
   3   145.4  144.7  144.0  143.4  142.8  142.3  141.8  141.3  140.9  140.3
   4   142.3  141.7  141.2  140.7  140.3  140.0  139.7  139.4  139.3  139.2
   5   137.7  137.3  137.0  136.9  136.8  136.8  136.8  136.9  137.2  137.7
   6   129.3  129.3  129.6  130.5  131.2  131.7  132.2  132.7  133.6  135.5
   7   119.6  119.6  119.8  123.4  124.6  125.2  126.0  126.5  127.8  132.9
   8   119.3  119.3  119.3  120.0  119.6  119.6  121.0  120.1  120.4  131.1
   9   119.3  119.3  119.3  119.4  119.4  119.4  119.5  119.9  120.2  130.6
  10   119.3  119.3  119.4  120.1  119.6  119.7  121.0  120.2  120.6  131.1
  11   119.6  119.6  119.8  123.4  124.6  125.3  126.1  126.5  127.8  132.9
  12   129.3  129.3  129.6  130.5  131.2  131.7  132.2  132.8  133.6  135.5
  13   137.7  137.3  137.0  136.9  136.8  136.8  136.8  136.9  137.2  137.7
  14   142.3  141.7  141.2  140.7  140.3  140.0  139.7  139.4  139.3  139.2
  15   145.4  144.7  144.0  143.4  142.8  142.3  141.8  141.3  140.9  140.3
  16   148.1  147.3  146.6  145.9  145.2  144.5  143.8  143.1  142.5  141.5
  17   150.0  149.2  148.5  147.7  146.9  146.1  145.4  144.6  143.9  142.7
1
              HEAD IN LAYER   5 AT END OF TIME STEP  50 IN STRESS PERIOD    2
  ---------------------------------------------------------------------------

         21     22
 .................
   1   141.1  140.0
   2   140.4  140.0
   3   139.9  140.0
   4   139.4  140.0
   5   138.9  140.0
   6   138.1  140.0
   7   137.5  140.0
   8   137.1  140.0
   9   137.0  140.0
  10   137.1  140.0
  11   137.5  140.0
  12   138.1  140.0
  13   138.9  140.0
  14   139.4  140.0
  15   139.9  140.0
  16   140.4  140.0
  17   141.1  140.0
1
  VOLUMETRIC BUDGET FOR ENTIRE MODEL AT END OF TIME STEP 50 IN STRESS PERIOD   2
  ------------------------------------------------------------------------------

     CUMULATIVE VOLUMES      L**3       RATES FOR THIS TIME STEP      L**3/T
     ------------------                 ------------------------

           IN:                                      IN:
           ---                                      ---
             STORAGE =    20821182.0000               STORAGE =           0.0000
       CONSTANT HEAD =  1012452736.0000         CONSTANT HEAD =      342444.6250
                  ET =           0.0000                    ET =           0.0000
            RECHARGE =   668809664.0000              RECHARGE =     1653000.0000
     SPECIFIED FLOWS =           0.0000       SPECIFIED FLOWS =           0.0000
       LAKE  SEEPAGE =     6758503.5000         LAKE  SEEPAGE =         714.2216

            TOTAL IN =  1708842112.0000              TOTAL IN =     1996158.8750

          OUT:                                     OUT:
          ----                                     ----
             STORAGE =   821345216.0000               STORAGE =      295177.2188
       CONSTANT HEAD =      579847.6250         CONSTANT HEAD =        3128.3733
                  ET =   635479232.0000                    ET =     1182752.7500
            RECHARGE =           0.0000              RECHARGE =           0.0000
     SPECIFIED FLOWS =           0.0000       SPECIFIED FLOWS =           0.0000
       LAKE  SEEPAGE =   251437152.0000         LAKE  SEEPAGE =      515079.9062

           TOTAL OUT =  1708841472.0000             TOTAL OUT =     1996138.2500

            IN - OUT =         640.0000              IN - OUT =          20.6250

 PERCENT DISCREPANCY =           0.00     PERCENT DISCREPANCY =           0.00






          TIME SUMMARY AT END OF TIME STEP  50 IN STRESS PERIOD    2
                    SECONDS     MINUTES      HOURS       DAYS        YEARS
                    -----------------------------------------------------------
   TIME STEP LENGTH 1.30407E+06  21734.      362.24      15.093     4.13234E-02
 STRESS PERIOD TIME 3.45600E+07 5.76000E+05  9600.0      400.00      1.0951    
         TOTAL TIME 6.91200E+07 1.15200E+06  19200.      800.00      2.1903    
1
