                                  MODFLOW-2000
      U.S. GEOLOGICAL SURVEY MODULAR FINITE-DIFFERENCE GROUND-WATER FLOW MODEL
                           VERSION 1.17.04 08/03/2007


 This model run produced both GLOBAL and LIST files.  This is the LIST file.


 THIS FILE CONTAINS OUTPUT UNIQUE TO FINAL PARAMETER VALUES
   --REGRESSION HAS CONVERGED
 SENSITIVITIES ARE CALCULATED USING PREVIOUS SET OF PARAMETER VALUES

 CURRENT VALUES OF PARAMETERS LISTED IN THE SEN FILE:

 PARAMETER   PARAMETER   PARAMETER    FOOT-
    NAME        TYPE       VALUE      NOTE
 ----------  ---------  ------------  -----
 WELLS_TR       Q        -1.0008        *
 RCH_ZONE_1     RCH       31.565        *
 RCH_ZONE_2     RCH       47.342        *
 RIVERS         RIV      1.00271E-03    *
 SS_1           SS       1.00101E-03    *
 HK_1           HK       4.00300E-04    *
 VERT_K_CB      VKCB     2.00235E-07    *
 SS_2           SS       9.99948E-05    *
 HK_2           HK       4.40482E-05    *
 ------------------------------------------
 * INDICATES VALUE ADJUSTABLE BY PARAMETER-
   ESTIMATION PROCESS


 REWOUND tc1-true.lst
 FILE TYPE:LIST   UNIT   12

 REWOUND ../data/tc1-true.obs
 FILE TYPE:OBS   UNIT   21

 REWOUND ../data/tc1-true.hob
 FILE TYPE:HOB   UNIT   22

 REWOUND ../data/tc1-true.orv
 FILE TYPE:RVOB   UNIT   23

 REWOUND ../data/tc1-true.dis
 FILE TYPE:DIS   UNIT   31

 REWOUND ../data/tc1-true.zon
 FILE TYPE:ZONE   UNIT   32

 REWOUND ../data/tc1-true.mlt
 FILE TYPE:MULT   UNIT   33

 REWOUND ../data/tc1-true.bas
 FILE TYPE:BAS6   UNIT   41

 REWOUND ../data/tc1-true.wel
 FILE TYPE:WEL   UNIT   43

 REWOUND ../data/tc1-true.oc
 FILE TYPE:OC   UNIT   46

 REWOUND ../data/tc1-true.ghb
 FILE TYPE:GHB   UNIT   47

 REWOUND ../data/tc1-true.riv
 FILE TYPE:RIV   UNIT   48

 REWOUND ../data/tc1-true.rch
 FILE TYPE:RCH   UNIT   49
 
 # MODULAR MODEL - TWO-LAYER EXAMPLE PROBLEM, TEST CASE TC1                      
 #                                                                               
 THE FREE FORMAT OPTION HAS BEEN SELECTED
    2 LAYERS        18 ROWS        18 COLUMNS
    5 STRESS PERIOD(S) IN SIMULATION

 BAS6 -- BASIC PACKAGE, VERSION 6, 1/11/2000 INPUT READ FROM UNIT   41
         10 ELEMENTS IN IR ARRAY ARE USED BY BAS

 WEL6 -- WELL PACKAGE, VERSION 6, 1/11/2000 INPUT READ FROM UNIT   43
     1 Named Parameters         2 List entries
 MAXIMUM OF      2 ACTIVE WELLS AT ONE TIME
         16 ELEMENTS IN RX ARRAY ARE USED BY WEL

 RIV6 -- RIVER PACKAGE, VERSION 6, 1/11/2000 INPUT READ FROM UNIT   48
 # RIV file for test case tc1
 #
     1 Named Parameters        18 List entries
 MAXIMUM OF     18 ACTIVE RIVER REACHES AT ONE TIME
        216 ELEMENTS IN RX ARRAY ARE USED BY RIV

 GHB6 -- GHB PACKAGE, VERSION 6, 1/11/2000 INPUT READ FROM UNIT   47
 No named parameters
 MAXIMUM OF     36 ACTIVE GHB CELLS AT ONE TIME
        180 ELEMENTS IN RX ARRAY ARE USED BY GHB

 RCH6 -- RECHARGE PACKAGE, VERSION 6, 1/11/2000 INPUT READ FROM UNIT   49
 # RCH file for test case tc1-true
 #
     2 Named Parameters     
 OPTION 1 -- RECHARGE TO TOP LAYER
        324 ELEMENTS IN RX ARRAY ARE USED BY RCH
        324 ELEMENTS IN IR ARRAY ARE USED BY RCH

        736  ELEMENTS OF RX ARRAY USED OUT OF        736
          0  ELEMENTS OF RZ ARRAY USED OUT OF          1
        334  ELEMENTS OF IR ARRAY USED OUT OF        334
1
 # MODULAR MODEL - TWO-LAYER EXAMPLE PROBLEM, TEST CASE TC1                      
 #                                                                               

           BOUNDARY ARRAY =              1 FOR LAYER   1

           BOUNDARY ARRAY =              1 FOR LAYER   2

 AQUIFER HEAD WILL BE SET TO  0.0000     AT ALL NO-FLOW NODES (IBOUND=0).

             INITIAL HEAD =   200.000     FOR LAYER   1

             INITIAL HEAD =   200.000     FOR LAYER   2

 OUTPUT CONTROL IS SPECIFIED ONLY AT TIME STEPS FOR WHICH OUTPUT IS DESIRED
 HEAD PRINT FORMAT CODE IS   2    DRAWDOWN PRINT FORMAT CODE IS   0
 HEADS WILL BE SAVED ON UNIT    0    DRAWDOWNS WILL BE SAVED ON UNIT    0

    HYD. COND. ALONG ROWS is defined by the following parameters:
 HK_1      

    HYD. COND. ALONG ROWS =  4.002997E-04 FOR LAYER   1

  HORIZ. TO VERTICAL ANI. is defined by the following parameters:
 VERT_ANI_1

  HORIZ. TO VERTICAL ANI. =   1.00000     FOR LAYER   1

         SPECIFIC STORAGE is defined by the following parameters:
 SS_1      

         SPECIFIC STORAGE =  2.002027E-05 FOR LAYER   1

 QUASI3D VERT. HYD. COND. is defined by the following parameters:
 VERT_K_CB 

 QUASI3D VERT. HYD. COND. =  2.002353E-07 FOR LAYER   1

    HYD. COND. ALONG ROWS is defined by the following parameters:
 HK_2      


              HYD. COND. ALONG ROWS FOR LAYER   2

          1         2         3         4         5         6         7
          8         9        10        11        12        13        14
         15        16        17        18
 ......................................................................
   1   4.40E-05  4.40E-05  8.81E-05  8.81E-05  1.32E-04  1.32E-04  1.76E-04
       1.76E-04  2.20E-04  2.20E-04  2.64E-04  2.64E-04  3.08E-04  3.08E-04
       3.52E-04  3.52E-04  3.96E-04  3.96E-04
   2   4.40E-05  4.40E-05  8.81E-05  8.81E-05  1.32E-04  1.32E-04  1.76E-04
       1.76E-04  2.20E-04  2.20E-04  2.64E-04  2.64E-04  3.08E-04  3.08E-04
       3.52E-04  3.52E-04  3.96E-04  3.96E-04
   3   4.40E-05  4.40E-05  8.81E-05  8.81E-05  1.32E-04  1.32E-04  1.76E-04
       1.76E-04  2.20E-04  2.20E-04  2.64E-04  2.64E-04  3.08E-04  3.08E-04
       3.52E-04  3.52E-04  3.96E-04  3.96E-04
   4   4.40E-05  4.40E-05  8.81E-05  8.81E-05  1.32E-04  1.32E-04  1.76E-04
       1.76E-04  2.20E-04  2.20E-04  2.64E-04  2.64E-04  3.08E-04  3.08E-04
       3.52E-04  3.52E-04  3.96E-04  3.96E-04
   5   4.40E-05  4.40E-05  8.81E-05  8.81E-05  1.32E-04  1.32E-04  1.76E-04
       1.76E-04  2.20E-04  2.20E-04  2.64E-04  2.64E-04  3.08E-04  3.08E-04
       3.52E-04  3.52E-04  3.96E-04  3.96E-04
   6   4.40E-05  4.40E-05  8.81E-05  8.81E-05  1.32E-04  1.32E-04  1.76E-04
       1.76E-04  2.20E-04  2.20E-04  2.64E-04  2.64E-04  3.08E-04  3.08E-04
       3.52E-04  3.52E-04  3.96E-04  3.96E-04
   7   4.40E-05  4.40E-05  8.81E-05  8.81E-05  1.32E-04  1.32E-04  1.76E-04
       1.76E-04  2.20E-04  2.20E-04  2.64E-04  2.64E-04  3.08E-04  3.08E-04
       3.52E-04  3.52E-04  3.96E-04  3.96E-04
   8   4.40E-05  4.40E-05  8.81E-05  8.81E-05  1.32E-04  1.32E-04  1.76E-04
       1.76E-04  2.20E-04  2.20E-04  2.64E-04  2.64E-04  3.08E-04  3.08E-04
       3.52E-04  3.52E-04  3.96E-04  3.96E-04
   9   4.40E-05  4.40E-05  8.81E-05  8.81E-05  1.32E-04  1.32E-04  1.76E-04
       1.76E-04  2.20E-04  2.20E-04  2.64E-04  2.64E-04  3.08E-04  3.08E-04
       3.52E-04  3.52E-04  3.96E-04  3.96E-04
  10   4.40E-05  4.40E-05  8.81E-05  8.81E-05  1.32E-04  1.32E-04  1.76E-04
       1.76E-04  2.20E-04  2.20E-04  2.64E-04  2.64E-04  3.08E-04  3.08E-04
       3.52E-04  3.52E-04  3.96E-04  3.96E-04
  11   4.40E-05  4.40E-05  8.81E-05  8.81E-05  1.32E-04  1.32E-04  1.76E-04
       1.76E-04  2.20E-04  2.20E-04  2.64E-04  2.64E-04  3.08E-04  3.08E-04
       3.52E-04  3.52E-04  3.96E-04  3.96E-04
  12   4.40E-05  4.40E-05  8.81E-05  8.81E-05  1.32E-04  1.32E-04  1.76E-04
       1.76E-04  2.20E-04  2.20E-04  2.64E-04  2.64E-04  3.08E-04  3.08E-04
       3.52E-04  3.52E-04  3.96E-04  3.96E-04
  13   4.40E-05  4.40E-05  8.81E-05  8.81E-05  1.32E-04  1.32E-04  1.76E-04
       1.76E-04  2.20E-04  2.20E-04  2.64E-04  2.64E-04  3.08E-04  3.08E-04
       3.52E-04  3.52E-04  3.96E-04  3.96E-04
  14   4.40E-05  4.40E-05  8.81E-05  8.81E-05  1.32E-04  1.32E-04  1.76E-04
       1.76E-04  2.20E-04  2.20E-04  2.64E-04  2.64E-04  3.08E-04  3.08E-04
       3.52E-04  3.52E-04  3.96E-04  3.96E-04
  15   4.40E-05  4.40E-05  8.81E-05  8.81E-05  1.32E-04  1.32E-04  1.76E-04
       1.76E-04  2.20E-04  2.20E-04  2.64E-04  2.64E-04  3.08E-04  3.08E-04
       3.52E-04  3.52E-04  3.96E-04  3.96E-04
  16   4.40E-05  4.40E-05  8.81E-05  8.81E-05  1.32E-04  1.32E-04  1.76E-04
       1.76E-04  2.20E-04  2.20E-04  2.64E-04  2.64E-04  3.08E-04  3.08E-04
       3.52E-04  3.52E-04  3.96E-04  3.96E-04
  17   4.40E-05  4.40E-05  8.81E-05  8.81E-05  1.32E-04  1.32E-04  1.76E-04
       1.76E-04  2.20E-04  2.20E-04  2.64E-04  2.64E-04  3.08E-04  3.08E-04
       3.52E-04  3.52E-04  3.96E-04  3.96E-04
  18   4.40E-05  4.40E-05  8.81E-05  8.81E-05  1.32E-04  1.32E-04  1.76E-04
       1.76E-04  2.20E-04  2.20E-04  2.64E-04  2.64E-04  3.08E-04  3.08E-04
       3.52E-04  3.52E-04  3.96E-04  3.96E-04

  HORIZ. TO VERTICAL ANI. is defined by the following parameters:
 VERT_ANI_2

  HORIZ. TO VERTICAL ANI. =   1.00000     FOR LAYER   2

         SPECIFIC STORAGE is defined by the following parameters:
 SS_2      

         SPECIFIC STORAGE =  1.999897E-06 FOR LAYER   2
1
                            STRESS PERIOD NO.    1, LENGTH =   1.000000    
                            -----------------------------------------------

                              NUMBER OF TIME STEPS =     1

                               MULTIPLIER FOR DELT =     1.000

                            INITIAL TIME STEP SIZE =   1.000000    

      0 WELLS

 Parameter:  RIVERS
 REACH NO.  LAYER   ROW   COL     STAGE      CONDUCTANCE     BOTTOM EL.         
 -------------------------------------------------------------------------------
      1      1      1      1       100.0           1.003           90.00    
      2      1      2      1       100.0           1.003           90.00    
      3      1      3      1       100.0           1.003           90.00    
      4      1      4      1       100.0           1.003           90.00    
      5      1      5      1       100.0           1.003           90.00    
      6      1      6      1       100.0           1.003           90.00    
      7      1      7      1       100.0           1.003           90.00    
      8      1      8      1       100.0           1.003           90.00    
      9      1      9      1       100.0           1.003           90.00    
     10      1     10      1       100.0           1.003           90.00    
     11      1     11      1       100.0           1.003           90.00    
     12      1     12      1       100.0           1.003           90.00    
     13      1     13      1       100.0           1.003           90.00    
     14      1     14      1       100.0           1.003           90.00    
     15      1     15      1       100.0           1.003           90.00    
     16      1     16      1       100.0           1.003           90.00    
     17      1     17      1       100.0           1.003           90.00    
     18      1     18      1       100.0           1.003           90.00    

     18 RIVER REACHES

 BOUND. NO. LAYER   ROW   COL     STAGE      CONDUCTANCE         
 ----------------------------------------------------------------
      1      1      1     18       350.0          0.1000E-06
      2      1      2     18       350.0          0.1000E-06
      3      1      3     18       350.0          0.1000E-06
      4      1      4     18       350.0          0.1000E-06
      5      1      5     18       350.0          0.1000E-06
      6      1      6     18       350.0          0.1000E-06
      7      1      7     18       350.0          0.1000E-06
      8      1      8     18       350.0          0.1000E-06
      9      1      9     18       350.0          0.1000E-06
     10      1     10     18       350.0          0.1000E-06
     11      1     11     18       350.0          0.1000E-06
     12      1     12     18       350.0          0.1000E-06
     13      1     13     18       350.0          0.1000E-06
     14      1     14     18       350.0          0.1000E-06
     15      1     15     18       350.0          0.1000E-06
     16      1     16     18       350.0          0.1000E-06
     17      1     17     18       350.0          0.1000E-06
     18      1     18     18       350.0          0.1000E-06
     19      2      1     18       350.0          0.1000E-06
     20      2      2     18       350.0          0.1000E-06
     21      2      3     18       350.0          0.1000E-06
     22      2      4     18       350.0          0.1000E-06
     23      2      5     18       350.0          0.1000E-06
     24      2      6     18       350.0          0.1000E-06
     25      2      7     18       350.0          0.1000E-06
     26      2      8     18       350.0          0.1000E-06
     27      2      9     18       350.0          0.1000E-06
     28      2     10     18       350.0          0.1000E-06
     29      2     11     18       350.0          0.1000E-06
     30      2     12     18       350.0          0.1000E-06
     31      2     13     18       350.0          0.1000E-06
     32      2     14     18       350.0          0.1000E-06
     33      2     15     18       350.0          0.1000E-06
     34      2     16     18       350.0          0.1000E-06
     35      2     17     18       350.0          0.1000E-06
     36      2     18     18       350.0          0.1000E-06

     36 GHB CELLS



 RECH array defined by the following parameters:
 Parameter:  RCH_ZONE_1
 Parameter:  RCH_ZONE_2


                           RECHARGE

            1           2           3           4           5           6           7           8           9          10
           11          12          13          14          15          16          17          18
 ........................................................................................................................
   1   1.0009E-08  1.0009E-08  1.0009E-08  1.0009E-08  1.0009E-08  1.0009E-08  1.0009E-08  1.0009E-08  1.0009E-08  1.5012E-08
       1.5012E-08  1.5012E-08  1.5012E-08  1.5012E-08  1.5012E-08  1.5012E-08  1.5012E-08  1.5012E-08
   2   1.0009E-08  1.0009E-08  1.0009E-08  1.0009E-08  1.0009E-08  1.0009E-08  1.0009E-08  1.0009E-08  1.0009E-08  1.5012E-08
       1.5012E-08  1.5012E-08  1.5012E-08  1.5012E-08  1.5012E-08  1.5012E-08  1.5012E-08  1.5012E-08
   3   1.0009E-08  1.0009E-08  1.0009E-08  1.0009E-08  1.0009E-08  1.0009E-08  1.0009E-08  1.0009E-08  1.0009E-08  1.5012E-08
       1.5012E-08  1.5012E-08  1.5012E-08  1.5012E-08  1.5012E-08  1.5012E-08  1.5012E-08  1.5012E-08
   4   1.0009E-08  1.0009E-08  1.0009E-08  1.0009E-08  1.0009E-08  1.0009E-08  1.0009E-08  1.0009E-08  1.0009E-08  1.5012E-08
       1.5012E-08  1.5012E-08  1.5012E-08  1.5012E-08  1.5012E-08  1.5012E-08  1.5012E-08  1.5012E-08
   5   1.0009E-08  1.0009E-08  1.0009E-08  1.0009E-08  1.0009E-08  1.0009E-08  1.0009E-08  1.0009E-08  1.0009E-08  1.5012E-08
       1.5012E-08  1.5012E-08  1.5012E-08  1.5012E-08  1.5012E-08  1.5012E-08  1.5012E-08  1.5012E-08
   6   1.0009E-08  1.0009E-08  1.0009E-08  1.0009E-08  1.0009E-08  1.0009E-08  1.0009E-08  1.0009E-08  1.0009E-08  1.5012E-08
       1.5012E-08  1.5012E-08  1.5012E-08  1.5012E-08  1.5012E-08  1.5012E-08  1.5012E-08  1.5012E-08
   7   1.0009E-08  1.0009E-08  1.0009E-08  1.0009E-08  1.0009E-08  1.0009E-08  1.0009E-08  1.0009E-08  1.0009E-08  1.5012E-08
       1.5012E-08  1.5012E-08  1.5012E-08  1.5012E-08  1.5012E-08  1.5012E-08  1.5012E-08  1.5012E-08
   8   1.0009E-08  1.0009E-08  1.0009E-08  1.0009E-08  1.0009E-08  1.0009E-08  1.0009E-08  1.0009E-08  1.0009E-08  1.5012E-08
       1.5012E-08  1.5012E-08  1.5012E-08  1.5012E-08  1.5012E-08  1.5012E-08  1.5012E-08  1.5012E-08
   9   1.0009E-08  1.0009E-08  1.0009E-08  1.0009E-08  1.0009E-08  1.0009E-08  1.0009E-08  1.0009E-08  1.0009E-08  1.5012E-08
       1.5012E-08  1.5012E-08  1.5012E-08  1.5012E-08  1.5012E-08  1.5012E-08  1.5012E-08  1.5012E-08
  10   1.0009E-08  1.0009E-08  1.0009E-08  1.0009E-08  1.0009E-08  1.0009E-08  1.0009E-08  1.0009E-08  1.0009E-08  1.5012E-08
       1.5012E-08  1.5012E-08  1.5012E-08  1.5012E-08  1.5012E-08  1.5012E-08  1.5012E-08  1.5012E-08
  11   1.0009E-08  1.0009E-08  1.0009E-08  1.0009E-08  1.0009E-08  1.0009E-08  1.0009E-08  1.0009E-08  1.0009E-08  1.5012E-08
       1.5012E-08  1.5012E-08  1.5012E-08  1.5012E-08  1.5012E-08  1.5012E-08  1.5012E-08  1.5012E-08
  12   1.0009E-08  1.0009E-08  1.0009E-08  1.0009E-08  1.0009E-08  1.0009E-08  1.0009E-08  1.0009E-08  1.0009E-08  1.5012E-08
       1.5012E-08  1.5012E-08  1.5012E-08  1.5012E-08  1.5012E-08  1.5012E-08  1.5012E-08  1.5012E-08
  13   1.0009E-08  1.0009E-08  1.0009E-08  1.0009E-08  1.0009E-08  1.0009E-08  1.0009E-08  1.0009E-08  1.0009E-08  1.5012E-08
       1.5012E-08  1.5012E-08  1.5012E-08  1.5012E-08  1.5012E-08  1.5012E-08  1.5012E-08  1.5012E-08
  14   1.0009E-08  1.0009E-08  1.0009E-08  1.0009E-08  1.0009E-08  1.0009E-08  1.0009E-08  1.0009E-08  1.0009E-08  1.5012E-08
       1.5012E-08  1.5012E-08  1.5012E-08  1.5012E-08  1.5012E-08  1.5012E-08  1.5012E-08  1.5012E-08
  15   1.0009E-08  1.0009E-08  1.0009E-08  1.0009E-08  1.0009E-08  1.0009E-08  1.0009E-08  1.0009E-08  1.0009E-08  1.5012E-08
       1.5012E-08  1.5012E-08  1.5012E-08  1.5012E-08  1.5012E-08  1.5012E-08  1.5012E-08  1.5012E-08
  16   1.0009E-08  1.0009E-08  1.0009E-08  1.0009E-08  1.0009E-08  1.0009E-08  1.0009E-08  1.0009E-08  1.0009E-08  1.5012E-08
       1.5012E-08  1.5012E-08  1.5012E-08  1.5012E-08  1.5012E-08  1.5012E-08  1.5012E-08  1.5012E-08
  17   1.0009E-08  1.0009E-08  1.0009E-08  1.0009E-08  1.0009E-08  1.0009E-08  1.0009E-08  1.0009E-08  1.0009E-08  1.5012E-08
       1.5012E-08  1.5012E-08  1.5012E-08  1.5012E-08  1.5012E-08  1.5012E-08  1.5012E-08  1.5012E-08
  18   1.0009E-08  1.0009E-08  1.0009E-08  1.0009E-08  1.0009E-08  1.0009E-08  1.0009E-08  1.0009E-08  1.0009E-08  1.5012E-08
       1.5012E-08  1.5012E-08  1.5012E-08  1.5012E-08  1.5012E-08  1.5012E-08  1.5012E-08  1.5012E-08
 
 SOLVING FOR HEAD 

 OUTPUT CONTROL FOR STRESS PERIOD    1   TIME STEP   1
    PRINT HEAD FOR ALL LAYERS
1
              HEAD IN LAYER   1 AT END OF TIME STEP   1 IN STRESS PERIOD    1
  ---------------------------------------------------------------------------

              1             2             3             4             5             6             7             8             9
             10            11            12            13            14            15            16            17            18
 ..............................................................................................................................
   1    100.225       109.979       118.910       126.939       134.258       140.864       146.860       152.264       157.146    
        161.541       165.308       168.490       171.133       173.268       174.927       176.137       176.925       177.311    
   2    100.225       109.979       118.910       126.939       134.258       140.864       146.860       152.264       157.146    
        161.541       165.308       168.490       171.133       173.268       174.927       176.137       176.925       177.311    
   3    100.225       109.979       118.910       126.939       134.258       140.864       146.860       152.264       157.146    
        161.541       165.308       168.490       171.133       173.268       174.927       176.137       176.925       177.311    
   4    100.225       109.979       118.910       126.939       134.258       140.864       146.860       152.264       157.146    
        161.541       165.308       168.490       171.133       173.268       174.927       176.137       176.925       177.311    
   5    100.225       109.979       118.910       126.939       134.258       140.864       146.860       152.264       157.146    
        161.541       165.308       168.490       171.133       173.268       174.927       176.137       176.925       177.311    
   6    100.225       109.979       118.910       126.939       134.258       140.864       146.860       152.264       157.146    
        161.541       165.308       168.490       171.133       173.268       174.927       176.137       176.925       177.311    
   7    100.225       109.979       118.910       126.939       134.258       140.864       146.860       152.264       157.146    
        161.541       165.308       168.490       171.133       173.268       174.927       176.137       176.925       177.311    
   8    100.225       109.979       118.910       126.939       134.258       140.864       146.860       152.264       157.146    
        161.541       165.308       168.490       171.133       173.268       174.927       176.137       176.925       177.311    
   9    100.225       109.979       118.910       126.939       134.258       140.864       146.860       152.264       157.146    
        161.541       165.308       168.490       171.133       173.268       174.927       176.137       176.925       177.311    
  10    100.225       109.979       118.910       126.939       134.258       140.864       146.860       152.264       157.146    
        161.541       165.308       168.490       171.133       173.268       174.927       176.137       176.925       177.311    
  11    100.225       109.979       118.910       126.939       134.258       140.864       146.860       152.264       157.146    
        161.541       165.308       168.490       171.133       173.268       174.927       176.137       176.925       177.311    
  12    100.225       109.979       118.910       126.939       134.258       140.864       146.860       152.264       157.146    
        161.541       165.308       168.490       171.133       173.268       174.927       176.137       176.925       177.311    
  13    100.225       109.979       118.910       126.939       134.258       140.864       146.860       152.264       157.146    
        161.541       165.308       168.490       171.133       173.268       174.927       176.137       176.925       177.311    
  14    100.225       109.979       118.910       126.939       134.258       140.864       146.860       152.264       157.146    
        161.541       165.308       168.490       171.133       173.268       174.927       176.137       176.925       177.311    
  15    100.225       109.979       118.910       126.939       134.258       140.864       146.860       152.264       157.146    
        161.541       165.308       168.490       171.133       173.268       174.927       176.137       176.925       177.311    
  16    100.225       109.979       118.910       126.939       134.258       140.864       146.860       152.264       157.146    
        161.541       165.308       168.490       171.133       173.268       174.927       176.137       176.925       177.311    
  17    100.225       109.979       118.910       126.939       134.258       140.864       146.860       152.264       157.146    
        161.541       165.308       168.490       171.133       173.268       174.927       176.137       176.925       177.311    
  18    100.225       109.979       118.910       126.939       134.258       140.864       146.860       152.264       157.146    
        161.541       165.308       168.490       171.133       173.268       174.927       176.137       176.925       177.311    
1
              HEAD IN LAYER   2 AT END OF TIME STEP   1 IN STRESS PERIOD    1
  ---------------------------------------------------------------------------

              1             2             3             4             5             6             7             8             9
             10            11            12            13            14            15            16            17            18
 ..............................................................................................................................
   1    101.235       110.307       119.315       127.149       134.471       140.973       146.953       152.287       157.134    
        161.418       165.142       168.278       170.892       172.992       174.626       175.809       176.576       176.945    
   2    101.235       110.307       119.315       127.149       134.471       140.973       146.953       152.287       157.134    
        161.418       165.142       168.278       170.892       172.992       174.626       175.809       176.576       176.945    
   3    101.235       110.307       119.315       127.149       134.471       140.973       146.953       152.287       157.134    
        161.418       165.142       168.278       170.892       172.992       174.626       175.809       176.576       176.945    
   4    101.235       110.307       119.315       127.149       134.471       140.973       146.953       152.287       157.134    
        161.418       165.142       168.278       170.892       172.992       174.626       175.809       176.576       176.945    
   5    101.235       110.307       119.315       127.149       134.471       140.973       146.953       152.287       157.134    
        161.418       165.142       168.278       170.892       172.992       174.626       175.809       176.576       176.945    
   6    101.235       110.307       119.315       127.149       134.471       140.973       146.953       152.287       157.134    
        161.418       165.142       168.278       170.892       172.992       174.626       175.809       176.576       176.945    
   7    101.235       110.307       119.315       127.149       134.471       140.973       146.953       152.287       157.134    
        161.418       165.142       168.278       170.892       172.992       174.626       175.809       176.576       176.945    
   8    101.235       110.307       119.315       127.149       134.471       140.973       146.953       152.287       157.134    
        161.418       165.142       168.278       170.892       172.992       174.626       175.809       176.576       176.945    
   9    101.235       110.307       119.315       127.149       134.471       140.973       146.953       152.287       157.134    
        161.418       165.142       168.278       170.892       172.992       174.626       175.809       176.576       176.945    
  10    101.235       110.307       119.315       127.149       134.471       140.973       146.953       152.287       157.134    
        161.418       165.142       168.278       170.892       172.992       174.626       175.809       176.576       176.945    
  11    101.235       110.307       119.315       127.149       134.471       140.973       146.953       152.287       157.134    
        161.418       165.142       168.278       170.892       172.992       174.626       175.809       176.576       176.945    
  12    101.235       110.307       119.315       127.149       134.471       140.973       146.953       152.287       157.134    
        161.418       165.142       168.278       170.892       172.992       174.626       175.809       176.576       176.945    
  13    101.235       110.307       119.315       127.149       134.471       140.973       146.953       152.287       157.134    
        161.418       165.142       168.278       170.892       172.992       174.626       175.809       176.576       176.945    
  14    101.235       110.307       119.315       127.149       134.471       140.973       146.953       152.287       157.134    
        161.418       165.142       168.278       170.892       172.992       174.626       175.809       176.576       176.945    
  15    101.235       110.307       119.315       127.149       134.471       140.973       146.953       152.287       157.134    
        161.418       165.142       168.278       170.892       172.992       174.626       175.809       176.576       176.945    
  16    101.235       110.307       119.315       127.149       134.471       140.973       146.953       152.287       157.134    
        161.418       165.142       168.278       170.892       172.992       174.626       175.809       176.576       176.945    
  17    101.235       110.307       119.315       127.149       134.471       140.973       146.953       152.287       157.134    
        161.418       165.142       168.278       170.892       172.992       174.626       175.809       176.576       176.945    
  18    101.235       110.307       119.315       127.149       134.471       140.973       146.953       152.287       157.134    
        161.418       165.142       168.278       170.892       172.992       174.626       175.809       176.576       176.945    
1
  VOLUMETRIC BUDGET FOR ENTIRE MODEL AT END OF TIME STEP  1 IN STRESS PERIOD   1
  ------------------------------------------------------------------------------

     CUMULATIVE VOLUMES      L**3       RATES FOR THIS TIME STEP      L**3/T
     ------------------                 ------------------------

           IN:                                      IN:
           ---                                      ---
             STORAGE =           0.0000               STORAGE =           0.0000
       CONSTANT HEAD =           0.0000         CONSTANT HEAD =           0.0000
               WELLS =           0.0000                 WELLS =           0.0000
       RIVER LEAKAGE =           0.0000         RIVER LEAKAGE =           0.0000
     HEAD DEP BOUNDS =       6.2234E-04       HEAD DEP BOUNDS =       6.2234E-04
            RECHARGE =           4.0534              RECHARGE =           4.0534

            TOTAL IN =           4.0541              TOTAL IN =           4.0541

          OUT:                                     OUT:
          ----                                     ----
             STORAGE =           0.0000               STORAGE =           0.0000
       CONSTANT HEAD =           0.0000         CONSTANT HEAD =           0.0000
               WELLS =           0.0000                 WELLS =           0.0000
       RIVER LEAKAGE =           4.0541         RIVER LEAKAGE =           4.0541
     HEAD DEP BOUNDS =           0.0000       HEAD DEP BOUNDS =           0.0000
            RECHARGE =           0.0000              RECHARGE =           0.0000

           TOTAL OUT =           4.0541             TOTAL OUT =           4.0541

            IN - OUT =       5.7220E-06              IN - OUT =       5.7220E-06

 PERCENT DISCREPANCY =           0.00     PERCENT DISCREPANCY =           0.00






          TIME SUMMARY AT END OF TIME STEP   1 IN STRESS PERIOD    1
                    SECONDS     MINUTES      HOURS       DAYS        YEARS
                    -----------------------------------------------------------
   TIME STEP LENGTH  1.0000     1.66667E-02 2.77778E-04 1.15741E-05 3.16881E-08
 STRESS PERIOD TIME  1.0000     1.66667E-02 2.77778E-04 1.15741E-05 3.16881E-08
         TOTAL TIME  1.0000     1.66667E-02 2.77778E-04 1.15741E-05 3.16881E-08
1
1
                            STRESS PERIOD NO.    2, LENGTH =   87162.00    
                            -----------------------------------------------

                              NUMBER OF TIME STEPS =     1

                               MULTIPLIER FOR DELT =     1.000

                            INITIAL TIME STEP SIZE =   87162.00    

 Parameter:  WELLS_TR
 WELL NO.  LAYER   ROW   COL   STRESS RATE         
 --------------------------------------------------
      1      1      9     10      -1.001    
      2      2      9     10      -1.001    

      2 WELLS

 Parameter:  RIVERS
 REACH NO.  LAYER   ROW   COL     STAGE      CONDUCTANCE     BOTTOM EL.         
 -------------------------------------------------------------------------------
      1      1      1      1       100.0           1.003           90.00    
      2      1      2      1       100.0           1.003           90.00    
      3      1      3      1       100.0           1.003           90.00    
      4      1      4      1       100.0           1.003           90.00    
      5      1      5      1       100.0           1.003           90.00    
      6      1      6      1       100.0           1.003           90.00    
      7      1      7      1       100.0           1.003           90.00    
      8      1      8      1       100.0           1.003           90.00    
      9      1      9      1       100.0           1.003           90.00    
     10      1     10      1       100.0           1.003           90.00    
     11      1     11      1       100.0           1.003           90.00    
     12      1     12      1       100.0           1.003           90.00    
     13      1     13      1       100.0           1.003           90.00    
     14      1     14      1       100.0           1.003           90.00    
     15      1     15      1       100.0           1.003           90.00    
     16      1     16      1       100.0           1.003           90.00    
     17      1     17      1       100.0           1.003           90.00    
     18      1     18      1       100.0           1.003           90.00    

     18 RIVER REACHES

 REUSING NON-PARAMETER GHB CELLS FROM LAST STRESS PERIOD

     36 GHB CELLS

 REUSING RECH FROM LAST STRESS PERIOD
 
 SOLVING FOR HEAD 

 OUTPUT CONTROL FOR STRESS PERIOD    2   TIME STEP   1
    PRINT HEAD FOR ALL LAYERS
1
              HEAD IN LAYER   1 AT END OF TIME STEP   1 IN STRESS PERIOD    2
  ---------------------------------------------------------------------------

              1             2             3             4             5             6             7             8             9
             10            11            12            13            14            15            16            17            18
 ..............................................................................................................................
   1    100.225       109.976       118.904       126.927       134.240       140.837       146.823       152.217       157.090    
        161.480       165.247       168.435       171.086       173.230       174.897       176.114       176.906       177.294    
   2    100.225       109.976       118.902       126.924       134.234       140.827       146.808       152.196       157.063    
        161.451       165.220       168.412       171.069       173.218       174.890       176.109       176.902       177.291    
   3    100.225       109.974       118.898       126.917       134.220       140.804       146.772       152.144       156.997    
        161.379       165.153       168.358       171.030       173.191       174.873       176.098       176.895       177.286    
   4    100.224       109.972       118.892       126.905       134.197       140.763       146.703       152.041       156.859    
        161.224       165.013       168.250       170.956       173.144       174.844       176.081       176.884       177.278    
   5    100.224       109.968       118.884       126.886       134.161       140.695       146.582       151.843       156.578    
        160.898       164.730       168.049       170.828       173.069       174.801       176.057       176.870       177.267    
   6    100.224       109.964       118.873       126.862       134.110       140.591       146.381       151.483       156.009    
        160.188       164.163       167.687       170.623       172.959       174.743       176.026       176.852       177.255    
   7    100.224       109.960       118.861       126.835       134.049       140.454       146.084       150.872       154.877    
        158.549       163.043       167.082       170.325       172.817       174.676       175.993       176.835       177.244    
   8    100.224       109.957       118.852       126.812       133.992       140.314       145.732       149.994       152.786    
        154.406       160.982       166.223       169.979       172.675       174.615       175.966       176.822       177.235    
   9    100.224       109.955       118.848       126.803       133.966       140.242       145.513       149.248       149.963    
        142.590       158.200       165.497       169.766       172.603       174.589       175.955       176.816       177.232    
  10    100.224       109.957       118.852       126.812       133.992       140.314       145.733       149.994       152.786    
        154.406       160.983       166.223       169.979       172.675       174.616       175.966       176.822       177.235    
  11    100.224       109.960       118.861       126.836       134.049       140.454       146.084       150.872       154.877    
        158.549       163.043       167.083       170.326       172.817       174.676       175.993       176.835       177.244    
  12    100.224       109.964       118.873       126.863       134.110       140.591       146.381       151.484       156.009    
        160.189       164.163       167.688       170.623       172.959       174.744       176.026       176.853       177.256    
  13    100.224       109.968       118.884       126.887       134.161       140.695       146.582       151.844       156.579    
        160.899       164.731       168.050       170.829       173.070       174.802       176.057       176.870       177.268    
  14    100.224       109.972       118.893       126.905       134.198       140.764       146.705       152.042       156.861    
        161.227       165.015       168.252       170.958       173.146       174.845       176.082       176.885       177.279    
  15    100.225       109.974       118.899       126.918       134.222       140.806       146.775       152.147       157.001    
        161.383       165.157       168.362       171.033       173.194       174.875       176.100       176.897       177.287    
  16    100.225       109.976       118.903       126.926       134.236       140.831       146.813       152.202       157.071    
        161.459       165.228       168.419       171.076       173.223       174.894       176.112       176.905       177.294    
  17    100.225       109.977       118.905       126.930       134.244       140.844       146.832       152.229       157.104    
        161.495       165.262       168.448       171.098       173.239       174.905       176.120       176.910       177.298    
  18    100.225       109.978       118.906       126.932       134.248       140.849       146.840       152.240       157.117    
        161.509       165.276       168.460       171.107       173.246       174.910       176.123       176.913       177.300    
1
              HEAD IN LAYER   2 AT END OF TIME STEP   1 IN STRESS PERIOD    2
  ---------------------------------------------------------------------------

              1             2             3             4             5             6             7             8             9
             10            11            12            13            14            15            16            17            18
 ..............................................................................................................................
   1    101.235       110.304       119.308       127.137       134.451       140.943       146.909       152.231       157.066    
        161.345       165.069       168.211       170.834       172.945       174.589       175.780       176.551       176.923    
   2    101.235       110.303       119.306       127.134       134.444       140.932       146.892       152.207       157.035    
        161.311       165.036       168.183       170.813       172.930       174.579       175.773       176.547       176.920    
   3    101.234       110.301       119.302       127.125       134.429       140.906       146.850       152.146       156.956    
        161.225       164.955       168.118       170.765       172.898       174.558       175.760       176.538       176.913    
   4    101.234       110.298       119.296       127.112       134.403       140.859       146.770       152.025       156.791    
        161.041       164.785       167.988       170.675       172.840       174.522       175.738       176.524       176.902    
   5    101.234       110.295       119.286       127.092       134.361       140.780       146.627       151.792       156.453    
        160.651       164.444       167.745       170.520       172.748       174.469       175.708       176.506       176.889    
   6    101.233       110.290       119.274       127.065       134.303       140.659       146.389       151.362       155.763    
        159.794       163.757       167.308       170.270       172.613       174.398       175.670       176.484       176.874    
   7    101.233       110.286       119.261       127.035       134.233       140.499       146.035       150.622       154.366    
        157.762       162.387       166.575       169.911       172.440       174.316       175.629       176.462       176.859    
   8    101.232       110.282       119.251       127.008       134.167       140.332       145.610       149.528       151.685    
        152.272       159.805       165.521       169.493       172.267       174.242       175.596       176.446       176.848    
   9    101.232       110.281       119.247       126.997       134.137       140.245       145.336       148.542       147.774    
        134.329       156.114       164.604       169.235       172.181       174.210       175.582       176.439       176.844    
  10    101.232       110.282       119.251       127.008       134.167       140.333       145.610       149.528       151.686    
        152.272       159.805       165.521       169.493       172.267       174.242       175.596       176.446       176.849    
  11    101.233       110.286       119.261       127.035       134.233       140.499       146.036       150.623       154.366    
        157.762       162.387       166.575       169.912       172.441       174.316       175.630       176.463       176.860    
  12    101.233       110.290       119.274       127.065       134.303       140.660       146.390       151.363       155.764    
        159.795       163.757       167.309       170.271       172.614       174.399       175.671       176.485       176.874    
  13    101.234       110.295       119.286       127.092       134.362       140.780       146.627       151.793       156.454    
        160.652       164.445       167.746       170.521       172.749       174.470       175.709       176.507       176.890    
  14    101.234       110.299       119.296       127.112       134.404       140.860       146.771       152.027       156.793    
        161.044       164.788       167.990       170.677       172.842       174.524       175.740       176.526       176.904    
  15    101.234       110.301       119.303       127.126       134.431       140.908       146.853       152.150       156.961    
        161.230       164.960       168.123       170.769       172.901       174.561       175.763       176.540       176.915    
  16    101.235       110.303       119.307       127.135       134.447       140.936       146.897       152.214       157.043    
        161.320       165.045       168.192       170.821       172.937       174.584       175.778       176.551       176.923    
  17    101.235       110.304       119.310       127.140       134.456       140.951       146.920       152.245       157.083    
        161.363       165.087       168.227       170.848       172.956       174.598       175.787       176.557       176.928    
  18    101.235       110.305       119.311       127.143       134.460       140.957       146.930       152.258       157.099    
        161.381       165.104       168.242       170.860       172.965       174.604       175.791       176.560       176.931    
1
  VOLUMETRIC BUDGET FOR ENTIRE MODEL AT END OF TIME STEP  1 IN STRESS PERIOD   2
  ------------------------------------------------------------------------------

     CUMULATIVE VOLUMES      L**3       RATES FOR THIS TIME STEP      L**3/T
     ------------------                 ------------------------

           IN:                                      IN:
           ---                                      ---
             STORAGE =      174103.7500               STORAGE =           1.9975
       CONSTANT HEAD =           0.0000         CONSTANT HEAD =           0.0000
               WELLS =           0.0000                 WELLS =           0.0000
       RIVER LEAKAGE =           0.0000         RIVER LEAKAGE =           0.0000
     HEAD DEP BOUNDS =          54.2599       HEAD DEP BOUNDS =       6.2251E-04
            RECHARGE =      353309.9375              RECHARGE =           4.0534

            TOTAL IN =      527467.9375              TOTAL IN =           6.0515

          OUT:                                     OUT:
          ----                                     ----
             STORAGE =           0.0000               STORAGE =           0.0000
       CONSTANT HEAD =           0.0000         CONSTANT HEAD =           0.0000
               WELLS =      174470.2969                 WELLS =           2.0017
       RIVER LEAKAGE =      353000.9062         RIVER LEAKAGE =           4.0499
     HEAD DEP BOUNDS =           0.0000       HEAD DEP BOUNDS =           0.0000
            RECHARGE =           0.0000              RECHARGE =           0.0000

           TOTAL OUT =      527471.1875             TOTAL OUT =           6.0516

            IN - OUT =          -3.2500              IN - OUT =      -3.7193E-05

 PERCENT DISCREPANCY =           0.00     PERCENT DISCREPANCY =           0.00






          TIME SUMMARY AT END OF TIME STEP   1 IN STRESS PERIOD    2
                    SECONDS     MINUTES      HOURS       DAYS        YEARS
                    -----------------------------------------------------------
   TIME STEP LENGTH  87162.      1452.7      24.212      1.0088     2.76200E-03
 STRESS PERIOD TIME  87162.      1452.7      24.212      1.0088     2.76200E-03
         TOTAL TIME  87163.      1452.7      24.212      1.0088     2.76203E-03
1
1
                            STRESS PERIOD NO.    3, LENGTH =   261486.0    
                            -----------------------------------------------

                              NUMBER OF TIME STEPS =     1

                               MULTIPLIER FOR DELT =     1.000

                            INITIAL TIME STEP SIZE =   261486.0    

 Parameter:  WELLS_TR
 WELL NO.  LAYER   ROW   COL   STRESS RATE         
 --------------------------------------------------
      1      1      9     10      -1.001    
      2      2      9     10      -1.001    

      2 WELLS

 Parameter:  RIVERS
 REACH NO.  LAYER   ROW   COL     STAGE      CONDUCTANCE     BOTTOM EL.         
 -------------------------------------------------------------------------------
      1      1      1      1       100.0           1.003           90.00    
      2      1      2      1       100.0           1.003           90.00    
      3      1      3      1       100.0           1.003           90.00    
      4      1      4      1       100.0           1.003           90.00    
      5      1      5      1       100.0           1.003           90.00    
      6      1      6      1       100.0           1.003           90.00    
      7      1      7      1       100.0           1.003           90.00    
      8      1      8      1       100.0           1.003           90.00    
      9      1      9      1       100.0           1.003           90.00    
     10      1     10      1       100.0           1.003           90.00    
     11      1     11      1       100.0           1.003           90.00    
     12      1     12      1       100.0           1.003           90.00    
     13      1     13      1       100.0           1.003           90.00    
     14      1     14      1       100.0           1.003           90.00    
     15      1     15      1       100.0           1.003           90.00    
     16      1     16      1       100.0           1.003           90.00    
     17      1     17      1       100.0           1.003           90.00    
     18      1     18      1       100.0           1.003           90.00    

     18 RIVER REACHES

 REUSING NON-PARAMETER GHB CELLS FROM LAST STRESS PERIOD

     36 GHB CELLS

 REUSING RECH FROM LAST STRESS PERIOD
 
 SOLVING FOR HEAD 

 NO OUTPUT CONTROL FOR STRESS PERIOD    3   TIME STEP   1
1
  VOLUMETRIC BUDGET FOR ENTIRE MODEL AT END OF TIME STEP  1 IN STRESS PERIOD   3
  ------------------------------------------------------------------------------

     CUMULATIVE VOLUMES      L**3       RATES FOR THIS TIME STEP      L**3/T
     ------------------                 ------------------------

           IN:                                      IN:
           ---                                      ---
             STORAGE =      677972.7500               STORAGE =           1.9269
       CONSTANT HEAD =           0.0000         CONSTANT HEAD =           0.0000
               WELLS =           0.0000                 WELLS =           0.0000
       RIVER LEAKAGE =           0.0000         RIVER LEAKAGE =           0.0000
     HEAD DEP BOUNDS =         217.7395       HEAD DEP BOUNDS =       6.2519E-04
            RECHARGE =     1413227.6250              RECHARGE =           4.0534

            TOTAL IN =     2091418.1250              TOTAL IN =           5.9810

          OUT:                                     OUT:
          ----                                     ----
             STORAGE =           0.0000               STORAGE =           0.0000
       CONSTANT HEAD =           0.0000         CONSTANT HEAD =           0.0000
               WELLS =      697881.1875                 WELLS =           2.0017
       RIVER LEAKAGE =     1393544.2500         RIVER LEAKAGE =           3.9793
     HEAD DEP BOUNDS =           0.0000       HEAD DEP BOUNDS =           0.0000
            RECHARGE =           0.0000              RECHARGE =           0.0000

           TOTAL OUT =     2091425.5000             TOTAL OUT =           5.9810

            IN - OUT =          -7.3750              IN - OUT =      -1.5259E-05

 PERCENT DISCREPANCY =           0.00     PERCENT DISCREPANCY =           0.00






          TIME SUMMARY AT END OF TIME STEP   1 IN STRESS PERIOD    3
                    SECONDS     MINUTES      HOURS       DAYS        YEARS
                    -----------------------------------------------------------
   TIME STEP LENGTH 2.61486E+05  4358.1      72.635      3.0265     8.28599E-03
 STRESS PERIOD TIME 2.61486E+05  4358.1      72.635      3.0265     8.28599E-03
         TOTAL TIME 3.48649E+05  5810.8      96.847      4.0353     1.10480E-02
1
1
                            STRESS PERIOD NO.    4, LENGTH =   522972.0    
                            -----------------------------------------------

                              NUMBER OF TIME STEPS =     1

                               MULTIPLIER FOR DELT =     1.000

                            INITIAL TIME STEP SIZE =   522972.0    

 Parameter:  WELLS_TR
 WELL NO.  LAYER   ROW   COL   STRESS RATE         
 --------------------------------------------------
      1      1      9     10      -1.001    
      2      2      9     10      -1.001    

      2 WELLS

 Parameter:  RIVERS
 REACH NO.  LAYER   ROW   COL     STAGE      CONDUCTANCE     BOTTOM EL.         
 -------------------------------------------------------------------------------
      1      1      1      1       100.0           1.003           90.00    
      2      1      2      1       100.0           1.003           90.00    
      3      1      3      1       100.0           1.003           90.00    
      4      1      4      1       100.0           1.003           90.00    
      5      1      5      1       100.0           1.003           90.00    
      6      1      6      1       100.0           1.003           90.00    
      7      1      7      1       100.0           1.003           90.00    
      8      1      8      1       100.0           1.003           90.00    
      9      1      9      1       100.0           1.003           90.00    
     10      1     10      1       100.0           1.003           90.00    
     11      1     11      1       100.0           1.003           90.00    
     12      1     12      1       100.0           1.003           90.00    
     13      1     13      1       100.0           1.003           90.00    
     14      1     14      1       100.0           1.003           90.00    
     15      1     15      1       100.0           1.003           90.00    
     16      1     16      1       100.0           1.003           90.00    
     17      1     17      1       100.0           1.003           90.00    
     18      1     18      1       100.0           1.003           90.00    

     18 RIVER REACHES

 REUSING NON-PARAMETER GHB CELLS FROM LAST STRESS PERIOD

     36 GHB CELLS

 REUSING RECH FROM LAST STRESS PERIOD
 
 SOLVING FOR HEAD 

 NO OUTPUT CONTROL FOR STRESS PERIOD    4   TIME STEP   1
1
  VOLUMETRIC BUDGET FOR ENTIRE MODEL AT END OF TIME STEP  1 IN STRESS PERIOD   4
  ------------------------------------------------------------------------------

     CUMULATIVE VOLUMES      L**3       RATES FOR THIS TIME STEP      L**3/T
     ------------------                 ------------------------

           IN:                                      IN:
           ---                                      ---
             STORAGE =     1581458.6250               STORAGE =           1.7276
       CONSTANT HEAD =           0.0000         CONSTANT HEAD =           0.0000
               WELLS =           0.0000                 WELLS =           0.0000
       RIVER LEAKAGE =           0.0000         RIVER LEAKAGE =           0.0000
     HEAD DEP BOUNDS =         549.5112       HEAD DEP BOUNDS =       6.3440E-04
            RECHARGE =     3533063.0000              RECHARGE =           4.0534

            TOTAL IN =     5115071.0000              TOTAL IN =           5.7817

          OUT:                                     OUT:
          ----                                     ----
             STORAGE =           0.0000               STORAGE =           0.0000
       CONSTANT HEAD =           0.0000         CONSTANT HEAD =           0.0000
               WELLS =     1744703.0000                 WELLS =           2.0017
       RIVER LEAKAGE =     3370328.2500         RIVER LEAKAGE =           3.7799
     HEAD DEP BOUNDS =           0.0000       HEAD DEP BOUNDS =           0.0000
            RECHARGE =           0.0000              RECHARGE =           0.0000

           TOTAL OUT =     5115031.0000             TOTAL OUT =           5.7816

            IN - OUT =          40.0000              IN - OUT =       9.0122E-05

 PERCENT DISCREPANCY =           0.00     PERCENT DISCREPANCY =           0.00






          TIME SUMMARY AT END OF TIME STEP   1 IN STRESS PERIOD    4
                    SECONDS     MINUTES      HOURS       DAYS        YEARS
                    -----------------------------------------------------------
   TIME STEP LENGTH 5.22972E+05  8716.2      145.27      6.0529     1.65720E-02
 STRESS PERIOD TIME 5.22972E+05  8716.2      145.27      6.0529     1.65720E-02
         TOTAL TIME 8.71621E+05  14527.      242.12      10.088     2.76200E-02
1
1
                            STRESS PERIOD NO.    5, LENGTH =  0.2356745E+08
                            -----------------------------------------------

                              NUMBER OF TIME STEPS =     9

                               MULTIPLIER FOR DELT =     1.200

                            INITIAL TIME STEP SIZE =   1133110.    

 Parameter:  WELLS_TR
 WELL NO.  LAYER   ROW   COL   STRESS RATE         
 --------------------------------------------------
      1      1      9     10      -1.001    
      2      2      9     10      -1.001    

      2 WELLS

 Parameter:  RIVERS
 REACH NO.  LAYER   ROW   COL     STAGE      CONDUCTANCE     BOTTOM EL.         
 -------------------------------------------------------------------------------
      1      1      1      1       100.0           1.003           90.00    
      2      1      2      1       100.0           1.003           90.00    
      3      1      3      1       100.0           1.003           90.00    
      4      1      4      1       100.0           1.003           90.00    
      5      1      5      1       100.0           1.003           90.00    
      6      1      6      1       100.0           1.003           90.00    
      7      1      7      1       100.0           1.003           90.00    
      8      1      8      1       100.0           1.003           90.00    
      9      1      9      1       100.0           1.003           90.00    
     10      1     10      1       100.0           1.003           90.00    
     11      1     11      1       100.0           1.003           90.00    
     12      1     12      1       100.0           1.003           90.00    
     13      1     13      1       100.0           1.003           90.00    
     14      1     14      1       100.0           1.003           90.00    
     15      1     15      1       100.0           1.003           90.00    
     16      1     16      1       100.0           1.003           90.00    
     17      1     17      1       100.0           1.003           90.00    
     18      1     18      1       100.0           1.003           90.00    

     18 RIVER REACHES

 REUSING NON-PARAMETER GHB CELLS FROM LAST STRESS PERIOD

     36 GHB CELLS

 REUSING RECH FROM LAST STRESS PERIOD
 
 SOLVING FOR HEAD 

 NO OUTPUT CONTROL FOR STRESS PERIOD    5   TIME STEP   1
 
 SOLVING FOR HEAD 

 NO OUTPUT CONTROL FOR STRESS PERIOD    5   TIME STEP   2
 
 SOLVING FOR HEAD 

 NO OUTPUT CONTROL FOR STRESS PERIOD    5   TIME STEP   3
 
 SOLVING FOR HEAD 

 NO OUTPUT CONTROL FOR STRESS PERIOD    5   TIME STEP   4
 
 SOLVING FOR HEAD 

 NO OUTPUT CONTROL FOR STRESS PERIOD    5   TIME STEP   5
 
 SOLVING FOR HEAD 

 NO OUTPUT CONTROL FOR STRESS PERIOD    5   TIME STEP   6
 
 SOLVING FOR HEAD 

 NO OUTPUT CONTROL FOR STRESS PERIOD    5   TIME STEP   7
 
 SOLVING FOR HEAD 

 NO OUTPUT CONTROL FOR STRESS PERIOD    5   TIME STEP   8
 
 SOLVING FOR HEAD 

 OUTPUT CONTROL FOR STRESS PERIOD    5   TIME STEP   9
    PRINT HEAD FOR ALL LAYERS
1
              HEAD IN LAYER   1 AT END OF TIME STEP   9 IN STRESS PERIOD    5
  ---------------------------------------------------------------------------

              1             2             3             4             5             6             7             8             9
             10            11            12            13            14            15            16            17            18
 ..............................................................................................................................
   1    100.121       105.152       109.582       113.428       116.837       119.867       122.621       125.168       127.588    
        129.941       132.068       133.986       135.685       137.141       138.328       139.228       139.828       140.128    
   2    100.120       105.116       109.509       113.315       116.678       119.658       122.361       124.863       127.251    
        129.596       131.739       133.695       135.442       136.945       138.174       139.106       139.727       140.037    
   3    100.118       105.046       109.368       113.095       116.367       119.244       121.838       124.239       126.554    
        128.878       131.061       133.102       134.953       136.559       137.875       138.871       139.535       139.866    
   4    100.116       104.950       109.171       112.783       115.919       118.635       121.049       123.271       125.448    
        127.728       129.986       132.184       134.219       135.995       137.448       138.545       139.273       139.634    
   5    100.114       104.837       108.937       112.407       115.365       117.857       119.999       121.925       123.846    
        126.024       128.428       130.910       133.248       135.281       136.930       138.161       138.973       139.373    
   6    100.111       104.722       108.696       112.011       114.760       116.967       118.726       120.172       121.600    
        123.524       126.246       129.253       132.075       134.473       136.374       137.768       138.676       139.120    
   7    100.109       104.622       108.485       111.653       114.191       116.077       117.342       118.047       118.505    
        119.674       123.237       127.246       130.806       133.675       135.865       137.429       138.432       138.919    
   8    100.108       104.558       108.346       111.408       113.778       115.378       116.121       115.828       114.435    
        113.008       119.270       125.149       129.693       133.061       135.512       137.217       138.293       138.811    
   9    100.108       104.544       108.312       111.341       113.650       115.125       115.576       114.472       110.433    
        99.0575       115.352       123.870       129.209       132.861       135.432       137.194       138.298       138.828    
  10    100.108       104.585       108.399       111.484       113.876       115.494       116.253       115.973       114.590    
        113.171       119.438       125.321       129.866       133.234       135.685       137.388       138.463       138.981    
  11    100.110       104.678       108.592       111.807       114.387       116.311       117.608       118.340       118.819    
        120.003       123.576       127.591       131.152       134.022       136.210       137.772       138.772       139.258    
  12    100.113       104.806       108.859       112.244       115.058       117.323       119.131       120.617       122.077    
        124.024       126.760       129.775       132.598       134.994       136.892       138.281       139.185       139.627    
  13    100.116       104.951       109.157       112.725       115.770       118.341       120.550       122.531       124.493    
        126.702       129.123       131.614       133.952       135.980       137.621       138.844       139.649       140.046    
  14    100.119       105.096       109.452       113.188       116.438       119.255       121.755       124.048       126.278    
        128.594       130.872       133.077       135.109       136.874       138.314       139.397       140.114       140.470    
  15    100.122       105.225       109.713       113.594       117.007       120.011       122.713       125.201       127.581    
        129.948       132.152       134.195       136.035       137.621       138.914       139.889       140.537       140.859    
  16    100.124       105.330       109.923       113.915       117.450       120.584       123.420       126.029       128.496    
        130.889       133.052       135.003       136.725       138.195       139.387       140.285       140.882       141.179    
  17    100.126       105.403       110.068       114.135       117.750       120.968       123.885       126.565       129.080    
        131.487       133.628       135.526       137.182       138.582       139.712       140.561       141.125       141.405    
  18    100.127       105.440       110.142       114.247       117.902       121.159       124.115       126.827       129.364    
        131.778       133.909       135.784       137.408       138.776       139.877       140.703       141.250       141.523    
1
              HEAD IN LAYER   2 AT END OF TIME STEP   9 IN STRESS PERIOD    5
  ---------------------------------------------------------------------------

              1             2             3             4             5             6             7             8             9
             10            11            12            13            14            15            16            17            18
 ..............................................................................................................................
   1    100.638       105.290       109.737       113.477       116.871       119.847       122.581       125.095       127.484    
        129.756       131.846       133.737       135.412       136.845       138.010       138.889       139.470       139.756    
   2    100.634       105.252       109.662       113.362       116.710       119.636       122.319       124.788       127.146    
        129.410       131.518       133.448       135.170       136.651       137.857       138.768       139.370       139.665    
   3    100.625       105.180       109.517       113.138       116.394       119.218       121.792       124.161       126.447    
        128.693       130.841       132.858       134.685       136.267       137.560       138.534       139.179       139.495    
   4    100.613       105.079       109.314       112.821       115.939       118.602       120.995       123.188       125.336    
        127.543       129.769       131.945       133.957       135.708       137.138       138.210       138.918       139.264    
   5    100.600       104.961       109.074       112.439       115.377       117.814       119.934       121.831       123.722    
        125.838       128.214       130.678       132.994       135.000       136.625       137.830       138.620       139.003    
   6    100.586       104.841       108.826       112.034       114.761       116.910       118.642       120.055       121.447    
        123.319       126.031       129.031       131.833       134.200       136.076       137.440       138.325       138.751    
   7    100.574       104.738       108.608       111.669       114.181       116.002       117.232       117.881       118.261    
        119.338       122.988       127.028       130.580       133.411       135.574       137.105       138.084       138.551    
   8    100.566       104.670       108.464       111.417       113.759       115.285       115.976       115.556       113.890    
        111.843       118.845       124.907       129.480       132.805       135.227       136.895       137.947       138.443    
   9    100.564       104.655       108.429       111.348       113.628       115.021       115.400       114.044       109.100    
        92.5501       114.362       123.559       128.998       132.607       135.149       136.873       137.952       138.461    
  10    100.569       104.699       108.518       111.494       113.858       115.402       116.108       115.701       114.046    
        112.007       119.014       125.079       129.653       132.978       135.399       137.066       138.117       138.613    
  11    100.580       104.795       108.718       111.824       114.379       116.238       117.499       118.174       118.575    
        119.668       123.327       127.373       130.927       133.758       135.918       137.447       138.424       138.890    
  12    100.596       104.929       108.992       112.270       115.063       117.268       119.049       120.502       121.925    
        123.819       126.546       129.552       132.357       134.721       136.593       137.953       138.834       139.258    
  13    100.614       105.080       109.300       112.759       115.786       118.301       120.487       122.438       124.371    
        126.516       128.910       131.382       133.698       135.699       137.315       138.512       139.296       139.676    
  14    100.632       105.231       109.603       113.231       116.463       119.226       121.705       123.966       126.168    
        128.410       130.656       132.838       134.846       136.586       138.003       139.062       139.759       140.099    
  15    100.647       105.366       109.872       113.643       117.041       119.989       122.671       125.126       127.476    
        129.764       131.933       133.951       135.767       137.329       138.599       139.552       140.180       140.487    
  16    100.660       105.475       110.087       113.969       117.489       120.567       123.384       125.958       128.394    
        130.705       132.832       134.755       136.453       137.899       139.069       139.946       140.524       140.807    
  17    100.669       105.551       110.237       114.192       117.793       120.954       123.852       126.495       128.979    
        131.302       133.406       135.276       136.907       138.284       139.392       140.221       140.766       141.033    
  18    100.674       105.590       110.313       114.305       117.947       121.147       124.084       126.759       129.264    
        131.593       133.686       135.533       137.133       138.477       139.556       140.362       140.891       141.151    
1
  VOLUMETRIC BUDGET FOR ENTIRE MODEL AT END OF TIME STEP  9 IN STRESS PERIOD   5
  ------------------------------------------------------------------------------

     CUMULATIVE VOLUMES      L**3       RATES FOR THIS TIME STEP      L**3/T
     ------------------                 ------------------------

           IN:                                      IN:
           ---                                      ---
             STORAGE =     9883174.0000               STORAGE =       4.5271E-02
       CONSTANT HEAD =           0.0000         CONSTANT HEAD =           0.0000
               WELLS =           0.0000                 WELLS =           0.0000
       RIVER LEAKAGE =           0.0000         RIVER LEAKAGE =           0.0000
     HEAD DEP BOUNDS =       17828.0391       HEAD DEP BOUNDS =       7.5705E-04
            RECHARGE =    99062312.0000              RECHARGE =           4.0534

            TOTAL IN =   108963312.0000              TOTAL IN =           4.0995

          OUT:                                     OUT:
          ----                                     ----
             STORAGE =           0.0000               STORAGE =           0.0000
       CONSTANT HEAD =           0.0000         CONSTANT HEAD =           0.0000
               WELLS =    48919172.0000                 WELLS =           2.0017
       RIVER LEAKAGE =    60044636.0000         RIVER LEAKAGE =           2.0979
     HEAD DEP BOUNDS =           0.0000       HEAD DEP BOUNDS =           0.0000
            RECHARGE =           0.0000              RECHARGE =           0.0000

           TOTAL OUT =   108963808.0000             TOTAL OUT =           4.0996

            IN - OUT =        -496.0000              IN - OUT =      -1.1492E-04

 PERCENT DISCREPANCY =           0.00     PERCENT DISCREPANCY =           0.00






          TIME SUMMARY AT END OF TIME STEP   9 IN STRESS PERIOD    5
                    SECONDS     MINUTES      HOURS       DAYS        YEARS
                    -----------------------------------------------------------
   TIME STEP LENGTH 4.87217E+06  81203.      1353.4      56.391     0.15439    
 STRESS PERIOD TIME 2.35675E+07 3.92791E+05  6546.5      272.77     0.74681    
         TOTAL TIME 2.44391E+07 4.07318E+05  6788.6      282.86     0.77443    
1

 DATA AT HEAD LOCATIONS

        OBSERVATION     OBSER-     SIMUL.                          WEIGHTED
   OBS#    NAME         VATION     EQUIV.    RESIDUAL  WEIGHT**.5  RESIDUAL
                          *          *
      1 1.0             100.       100.      0.381E-03  0.999      0.381E-03
      2 1.1             0.00     -0.107E-03  0.107E-03   20.0      0.214E-02
      3 1.12          -0.106     -0.106      0.282E-03   20.0      0.565E-02
      4 2.0             127.       127.     -0.610E-03  0.999     -0.610E-03
      5 2.1           -0.340E-01 -0.341E-01  0.839E-04   20.0      0.168E-02
      6 2.2           -0.556     -0.555     -0.603E-03   20.0     -0.121E-01
      7 2.8            -11.6      -11.6      0.916E-04   20.0      0.183E-02
      8 2.12           -14.2      -14.2     -0.427E-03   20.0     -0.854E-02
      9 3.0             157.       157.     -0.412E-03  0.999     -0.411E-03
     10 3.1            -4.36      -4.36      0.137E-03   20.0      0.275E-02
     11 3.12           -42.6      -42.6      0.130E-03   20.0      0.259E-02
     12 4.0             127.       127.     -0.610E-03  0.999     -0.610E-03
     13 4.1           -0.520E-01 -0.520E-01 -0.763E-05   20.0     -0.153E-03
     14 4.12           -14.2      -14.2      0.763E-05   20.0      0.153E-03
     15 5.0             141.       141.     -0.519E-03  0.999     -0.518E-03
     16 5.1           -0.100     -0.995E-01 -0.549E-03   20.0     -0.110E-01
     17 5.12           -21.6      -21.6     -0.488E-03   20.0     -0.977E-02
     18 6.0             127.       127.     -0.473E-03  0.999     -0.472E-03
     19 6.1           -0.380E-01 -0.376E-01 -0.366E-03   20.0     -0.732E-02
     20 6.12           -14.3      -14.3     -0.427E-03   20.0     -0.854E-02
     21 7.0             101.       101.       0.00      0.999       0.00    
     22 7.1           -0.200E-02 -0.272E-02  0.717E-03   20.0      0.143E-01
     23 7.12          -0.666     -0.666     -0.107E-03   20.0     -0.214E-02
     24 8.0             157.       157.     -0.565E-03  0.999     -0.564E-03
     25 8.1            -5.45      -5.45       0.00       20.0       0.00    
     26 8.12           -43.1      -43.1      0.916E-04   20.0      0.183E-02
     27 9.0             177.       177.      0.107E-02  0.999      0.107E-02
     28 9.1           -0.960E-01 -0.963E-01  0.336E-03   20.0      0.671E-02
     29 9.12           -38.3      -38.3     -0.290E-03   20.0     -0.580E-02
     30 0.0             141.       141.     -0.139E-02  0.999     -0.139E-02
     31 0.1           -0.160E-01 -0.163E-01  0.290E-03   20.0      0.580E-02
     32 0.12           -19.8      -19.8      0.121E-02   20.0      0.243E-01

 * THE OBSERVATION (AND CORRESPONDING SIMULATED EQUIVALENT) IS HEAD OR TEMPORAL
   CHANGE IN HEAD, AS SPECIFIED IN THE "HOB" INPUT FILE.  NEGATIVE TEMPORAL
   CHANGES INDICATE DRAWDOWN.

 STATISTICS FOR HEAD RESIDUALS :
 MAXIMUM WEIGHTED RESIDUAL  : 0.243E-01 OBS#     32
 MINIMUM WEIGHTED RESIDUAL  :-0.121E-01 OBS#      6
 AVERAGE WEIGHTED RESIDUAL  : 0.407E-04
 # RESIDUALS >= 0. :     16
 # RESIDUALS < 0.  :     16
 NUMBER OF RUNS  :   13  IN   32 OBSERVATIONS

 SUM OF SQUARED WEIGHTED RESIDUALS (HEADS ONLY)  0.15375E-02

 DATA FOR FLOWS REPRESENTED USING THE RIVER PACKAGE

        OBSERVATION      MEAS.      CALC.                          WEIGHTED
   OBS#    NAME          FLOW       FLOW     RESIDUAL  WEIGHT**.5  RESIDUAL

     33 SS             -4.05      -4.05      0.406E-02   2.50      0.101E-01
     34 TR3            -3.78      -3.78     -0.961E-04   2.63     -0.253E-03
     35 TR12           -2.10      -2.10     -0.210E-02   4.76     -0.998E-02

 STATISTICS FOR RIVER FLOW RESIDUALS :
 MAXIMUM WEIGHTED RESIDUAL  : 0.101E-01 OBS#     33
 MINIMUM WEIGHTED RESIDUAL  :-0.998E-02 OBS#     35
 AVERAGE WEIGHTED RESIDUAL  :-0.300E-04
 # RESIDUALS >= 0. :      1
 # RESIDUALS < 0.  :      2
 NUMBER OF RUNS:      2  IN      3 OBSERVATIONS

 SUM OF SQUARED WEIGHTED RESIDUALS (RIVER FLOWS ONLY)  0.20247E-03

 SUM OF SQUARED WEIGHTED RESIDUALS (ALL DEPENDENT VARIABLES)  0.17400E-02

 STATISTICS FOR ALL RESIDUALS :
 AVERAGE WEIGHTED RESIDUAL  : 0.346E-04
 # RESIDUALS >= 0. :     17
 # RESIDUALS < 0.  :     18
 NUMBER OF RUNS  :   14  IN   35 OBSERVATIONS

 INTERPRETING THE CALCULATED RUNS STATISTIC VALUE OF     -1.37    
 NOTE: THE FOLLOWING APPLIES ONLY IF 
        # RESIDUALS >= 0 . IS GREATER THAN 10 AND 
        # RESIDUALS < 0.   IS GREATER THAN 10
 THE NEGATIVE VALUE MAY INDICATE TOO FEW RUNS:
    IF THE VALUE IS LESS THAN -1.28, THERE IS LESS THAN A 10 PERCENT
       CHANCE THE VALUES ARE RANDOM,
    IF THE VALUE IS LESS THAN -1.645, THERE IS LESS THAN A 5 PERCENT
       CHANCE THE VALUES ARE RANDOM,
    IF THE VALUE IS LESS THAN -1.96, THERE IS LESS THAN A 2.5 PERCENT
       CHANCE THE VALUES ARE RANDOM.


 ORDERED DEPENDENT-VARIABLE WEIGHTED RESIDUALS
 NUMBER OF RESIDUALS INCLUDED:        35
    -0.121E-01 -0.110E-01 -0.998E-02 -0.977E-02 -0.854E-02 -0.854E-02 -0.732E-02
    -0.580E-02 -0.214E-02 -0.139E-02 -0.610E-03 -0.610E-03 -0.564E-03 -0.518E-03
    -0.472E-03 -0.411E-03 -0.253E-03 -0.153E-03   0.00       0.00      0.153E-03
     0.381E-03  0.107E-02  0.168E-02  0.183E-02  0.183E-02  0.214E-02  0.259E-02
     0.275E-02  0.565E-02  0.580E-02  0.671E-02  0.101E-01  0.143E-01  0.243E-01

 CORRELATION BETWEEN ORDERED WEIGHTED RESIDUALS AND NORMAL ORDER STATISTICS
 FOR OBSERVATIONS =    0.886    

 --------------------------------------------------------------------------
 COMMENTS ON THE INTERPRETATION OF THE CORRELATION BETWEEN
 WEIGHTED RESIDUALS AND NORMAL ORDER STATISTICS:

 The critical value for correlation at the 5% significance level is 0.943

 IF the reported CORRELATION is GREATER than the 5% critical value, ACCEPT
 the hypothesis that the weighted residuals are INDEPENDENT AND NORMALLY
 DISTRIBUTED at the 5% significance level.  The probability that this   
 conclusion is wrong is less than 5%.

 IF the reported correlation IS LESS THAN the 5% critical value REJECT the
 hypothesis that the weighted residuals are INDEPENDENT AND NORMALLY
 DISTRIBUTED at the 5% significance level.

 The analysis can also be done using the 10% significance level.
 The associated critical value is 0.952
 --------------------------------------------------------------------------

