                                  MODFLOW-2000
      U.S. GEOLOGICAL SURVEY MODULAR FINITE-DIFFERENCE GROUND-WATER FLOW MODEL
                             VERSION 1.5 08/16/2001


 This model run produced both GLOBAL and LIST files.  This is the LIST file.


 THIS FILE CONTAINS OUTPUT UNIQUE TO FINAL PARAMETER VALUES
   --REGRESSION HAS CONVERGED
 SENSITIVITIES ARE CALCULATED USING PREVIOUS SET OF PARAMETER VALUES

 CURRENT VALUES OF PARAMETERS LISTED IN THE SEN FILE:

 PARAMETER   PARAMETER   PARAMETER    FOOT-
    NAME        TYPE       VALUE      NOTE
 ----------  ---------  ------------  -----
 WELLS_TR       Q        -1.0741        *
 RCH_ZONE_1     RCH       34.119        *
 RCH_ZONE_2     RCH       50.485        *
 RIVERS         RIV      1.38214E-03    *
 SS_1           SS       1.13826E-03    *
 HK_1           HK       4.25559E-04    *
 VERT_K_CB      VKCB     2.16512E-07    *
 SS_2           SS       6.19584E-05    *
 HK_2           HK       4.82364E-05    *
 ------------------------------------------
 * INDICATES VALUE ADJUSTABLE BY PARAMETER-
   ESTIMATION PROCESS


 REWOUND tc1.lst
 FILE TYPE:LIST   UNIT  12

 REWOUND ../data/tc1.obs
 FILE TYPE:OBS   UNIT  21

 REWOUND ../data/tc1.ohd
 FILE TYPE:HOB   UNIT  22

 REWOUND ../data/tc1.orv
 FILE TYPE:RVOB   UNIT  23

 REWOUND ../data/tc1.dis
 FILE TYPE:DIS   UNIT  31

 REWOUND ../data/tc1.zon
 FILE TYPE:ZONE   UNIT  32

 REWOUND ../data/tc1.mlt
 FILE TYPE:MULT   UNIT  33

 REWOUND ../data/tc1.bas
 FILE TYPE:BAS6   UNIT  41

 REWOUND ../data/tc1.wel
 FILE TYPE:WEL   UNIT  43

 REWOUND ../data/tc1.oc
 FILE TYPE:OC   UNIT  45

 REWOUND ../data/tc1.ghb
 FILE TYPE:GHB   UNIT  46

 REWOUND ../data/tc1.riv
 FILE TYPE:RIV   UNIT  47

 REWOUND ../data/tc1.rch
 FILE TYPE:RCH   UNIT  48
 
 # MODULAR MODEL - TWO-LAYER EXAMPLE PROBLEM, TEST CASE TC1                      
 #                                                                               
 THE FREE FORMAT OPTION HAS BEEN SELECTED
    2 LAYERS        18 ROWS        18 COLUMNS
   5 STRESS PERIOD(S) IN SIMULATION

 BAS6 -- BASIC PACKAGE, VERSION 6, 1/11/2000 INPUT READ FROM UNIT 41
         10 ELEMENTS IN IR ARRAY ARE USED BY BAS

 WEL6 -- WELL PACKAGE, VERSION 6, 1/11/2000 INPUT READ FROM UNIT 43
     1 Named Parameters         2 List entries
 MAXIMUM OF    2 ACTIVE WELLS AT ONE TIME
         16 ELEMENTS IN RX ARRAY ARE USED BY WEL

 RIV6 -- RIVER PACKAGE, VERSION 6, 1/11/2000 INPUT READ FROM UNIT 47
 # RIV file for test case tc1
 #
     1 Named Parameters        18 List entries
 MAXIMUM OF   18 ACTIVE RIVER REACHES AT ONE TIME
        216 ELEMENTS IN RX ARRAY ARE USED BY RIV

 GHB6 -- GHB PACKAGE, VERSION 6, 1/11/2000 INPUT READ FROM UNIT 46
 No named parameters
 MAXIMUM OF   36 ACTIVE GHB CELLS AT ONE TIME
        180 ELEMENTS IN RX ARRAY ARE USED BY GHB

 RCH6 -- RECHARGE PACKAGE, VERSION 6, 1/11/2000 INPUT READ FROM UNIT 48
     2 Named Parameters     
 OPTION 1 -- RECHARGE TO TOP LAYER
        324 ELEMENTS IN RX ARRAY ARE USED BY RCH
        324 ELEMENTS IN IR ARRAY ARE USED BY RCH

        736  ELEMENTS OF RX ARRAY USED OUT OF        736
        334  ELEMENTS OF IR ARRAY USED OUT OF        334
1
 # MODULAR MODEL - TWO-LAYER EXAMPLE PROBLEM, TEST CASE TC1                      
 #                                                                               

           BOUNDARY ARRAY =              1 FOR LAYER   1

           BOUNDARY ARRAY =              1 FOR LAYER   2

 AQUIFER HEAD WILL BE SET TO  0.0000     AT ALL NO-FLOW NODES (IBOUND=0).

             INITIAL HEAD =   200.000     FOR LAYER   1

             INITIAL HEAD =   200.000     FOR LAYER   2

 OUTPUT CONTROL IS SPECIFIED ONLY AT TIME STEPS FOR WHICH OUTPUT IS DESIRED
 HEAD PRINT FORMAT CODE IS  14    DRAWDOWN PRINT FORMAT CODE IS   0
 HEADS WILL BE SAVED ON UNIT   0    DRAWDOWNS WILL BE SAVED ON UNIT   0

    HYD. COND. ALONG ROWS is defined by the following parameters:
 HK_1      

    HYD. COND. ALONG ROWS =  4.255592E-04 FOR LAYER   1

  HORIZ. TO VERTICAL ANI. is defined by the following parameters:
 VERT_ANI_1

  HORIZ. TO VERTICAL ANI. =   1.00000     FOR LAYER   1

         SPECIFIC STORAGE is defined by the following parameters:
 SS_1      

         SPECIFIC STORAGE =  2.276518E-05 FOR LAYER   1

 QUASI3D VERT. HYD. COND. is defined by the following parameters:
 VERT_K_CB 

 QUASI3D VERT. HYD. COND. =  2.165117E-07 FOR LAYER   1

    HYD. COND. ALONG ROWS is defined by the following parameters:
 HK_2      


              HYD. COND. ALONG ROWS FOR LAYER   2

          1         2         3         4         5         6         7
          8         9        10        11        12        13        14
         15        16        17        18
 ......................................................................
   1   4.82E-05  4.82E-05  9.65E-05  9.65E-05  1.45E-04  1.45E-04  1.93E-04
       1.93E-04  2.41E-04  2.41E-04  2.89E-04  2.89E-04  3.38E-04  3.38E-04
       3.86E-04  3.86E-04  4.34E-04  4.34E-04
   2   4.82E-05  4.82E-05  9.65E-05  9.65E-05  1.45E-04  1.45E-04  1.93E-04
       1.93E-04  2.41E-04  2.41E-04  2.89E-04  2.89E-04  3.38E-04  3.38E-04
       3.86E-04  3.86E-04  4.34E-04  4.34E-04
   3   4.82E-05  4.82E-05  9.65E-05  9.65E-05  1.45E-04  1.45E-04  1.93E-04
       1.93E-04  2.41E-04  2.41E-04  2.89E-04  2.89E-04  3.38E-04  3.38E-04
       3.86E-04  3.86E-04  4.34E-04  4.34E-04
   4   4.82E-05  4.82E-05  9.65E-05  9.65E-05  1.45E-04  1.45E-04  1.93E-04
       1.93E-04  2.41E-04  2.41E-04  2.89E-04  2.89E-04  3.38E-04  3.38E-04
       3.86E-04  3.86E-04  4.34E-04  4.34E-04
   5   4.82E-05  4.82E-05  9.65E-05  9.65E-05  1.45E-04  1.45E-04  1.93E-04
       1.93E-04  2.41E-04  2.41E-04  2.89E-04  2.89E-04  3.38E-04  3.38E-04
       3.86E-04  3.86E-04  4.34E-04  4.34E-04
   6   4.82E-05  4.82E-05  9.65E-05  9.65E-05  1.45E-04  1.45E-04  1.93E-04
       1.93E-04  2.41E-04  2.41E-04  2.89E-04  2.89E-04  3.38E-04  3.38E-04
       3.86E-04  3.86E-04  4.34E-04  4.34E-04
   7   4.82E-05  4.82E-05  9.65E-05  9.65E-05  1.45E-04  1.45E-04  1.93E-04
       1.93E-04  2.41E-04  2.41E-04  2.89E-04  2.89E-04  3.38E-04  3.38E-04
       3.86E-04  3.86E-04  4.34E-04  4.34E-04
   8   4.82E-05  4.82E-05  9.65E-05  9.65E-05  1.45E-04  1.45E-04  1.93E-04
       1.93E-04  2.41E-04  2.41E-04  2.89E-04  2.89E-04  3.38E-04  3.38E-04
       3.86E-04  3.86E-04  4.34E-04  4.34E-04
   9   4.82E-05  4.82E-05  9.65E-05  9.65E-05  1.45E-04  1.45E-04  1.93E-04
       1.93E-04  2.41E-04  2.41E-04  2.89E-04  2.89E-04  3.38E-04  3.38E-04
       3.86E-04  3.86E-04  4.34E-04  4.34E-04
  10   4.82E-05  4.82E-05  9.65E-05  9.65E-05  1.45E-04  1.45E-04  1.93E-04
       1.93E-04  2.41E-04  2.41E-04  2.89E-04  2.89E-04  3.38E-04  3.38E-04
       3.86E-04  3.86E-04  4.34E-04  4.34E-04
  11   4.82E-05  4.82E-05  9.65E-05  9.65E-05  1.45E-04  1.45E-04  1.93E-04
       1.93E-04  2.41E-04  2.41E-04  2.89E-04  2.89E-04  3.38E-04  3.38E-04
       3.86E-04  3.86E-04  4.34E-04  4.34E-04
  12   4.82E-05  4.82E-05  9.65E-05  9.65E-05  1.45E-04  1.45E-04  1.93E-04
       1.93E-04  2.41E-04  2.41E-04  2.89E-04  2.89E-04  3.38E-04  3.38E-04
       3.86E-04  3.86E-04  4.34E-04  4.34E-04
  13   4.82E-05  4.82E-05  9.65E-05  9.65E-05  1.45E-04  1.45E-04  1.93E-04
       1.93E-04  2.41E-04  2.41E-04  2.89E-04  2.89E-04  3.38E-04  3.38E-04
       3.86E-04  3.86E-04  4.34E-04  4.34E-04
  14   4.82E-05  4.82E-05  9.65E-05  9.65E-05  1.45E-04  1.45E-04  1.93E-04
       1.93E-04  2.41E-04  2.41E-04  2.89E-04  2.89E-04  3.38E-04  3.38E-04
       3.86E-04  3.86E-04  4.34E-04  4.34E-04
  15   4.82E-05  4.82E-05  9.65E-05  9.65E-05  1.45E-04  1.45E-04  1.93E-04
       1.93E-04  2.41E-04  2.41E-04  2.89E-04  2.89E-04  3.38E-04  3.38E-04
       3.86E-04  3.86E-04  4.34E-04  4.34E-04
  16   4.82E-05  4.82E-05  9.65E-05  9.65E-05  1.45E-04  1.45E-04  1.93E-04
       1.93E-04  2.41E-04  2.41E-04  2.89E-04  2.89E-04  3.38E-04  3.38E-04
       3.86E-04  3.86E-04  4.34E-04  4.34E-04
  17   4.82E-05  4.82E-05  9.65E-05  9.65E-05  1.45E-04  1.45E-04  1.93E-04
       1.93E-04  2.41E-04  2.41E-04  2.89E-04  2.89E-04  3.38E-04  3.38E-04
       3.86E-04  3.86E-04  4.34E-04  4.34E-04
  18   4.82E-05  4.82E-05  9.65E-05  9.65E-05  1.45E-04  1.45E-04  1.93E-04
       1.93E-04  2.41E-04  2.41E-04  2.89E-04  2.89E-04  3.38E-04  3.38E-04
       3.86E-04  3.86E-04  4.34E-04  4.34E-04

  HORIZ. TO VERTICAL ANI. is defined by the following parameters:
 VERT_ANI_2

  HORIZ. TO VERTICAL ANI. =   1.00000     FOR LAYER   2

         SPECIFIC STORAGE is defined by the following parameters:
 SS_2      

         SPECIFIC STORAGE =  1.239169E-06 FOR LAYER   2
1
                            STRESS PERIOD NO.   1, LENGTH =   1.000000    
                            ----------------------------------------------

                              NUMBER OF TIME STEPS =     1

                               MULTIPLIER FOR DELT =     1.000

                            INITIAL TIME STEP SIZE =   1.000000    

     0 WELLS

 Parameter:  RIVERS
 REACH NO.  LAYER   ROW   COL     STAGE      CONDUCTANCE     BOTTOM EL.   
 -------------------------------------------------------------------------
      1      1      1      1       100.0           1.382           90.00    
      2      1      2      1       100.0           1.382           90.00    
      3      1      3      1       100.0           1.382           90.00    
      4      1      4      1       100.0           1.382           90.00    
      5      1      5      1       100.0           1.382           90.00    
      6      1      6      1       100.0           1.382           90.00    
      7      1      7      1       100.0           1.382           90.00    
      8      1      8      1       100.0           1.382           90.00    
      9      1      9      1       100.0           1.382           90.00    
     10      1     10      1       100.0           1.382           90.00    
     11      1     11      1       100.0           1.382           90.00    
     12      1     12      1       100.0           1.382           90.00    
     13      1     13      1       100.0           1.382           90.00    
     14      1     14      1       100.0           1.382           90.00    
     15      1     15      1       100.0           1.382           90.00    
     16      1     16      1       100.0           1.382           90.00    
     17      1     17      1       100.0           1.382           90.00    
     18      1     18      1       100.0           1.382           90.00    

    18 RIVER REACHES

 BOUND. NO. LAYER   ROW   COL     STAGE      CONDUCTANCE   
 ----------------------------------------------------------
      1      1      1     18       350.0          0.1000E-06
      2      1      2     18       350.0          0.1000E-06
      3      1      3     18       350.0          0.1000E-06
      4      1      4     18       350.0          0.1000E-06
      5      1      5     18       350.0          0.1000E-06
      6      1      6     18       350.0          0.1000E-06
      7      1      7     18       350.0          0.1000E-06
      8      1      8     18       350.0          0.1000E-06
      9      1      9     18       350.0          0.1000E-06
     10      1     10     18       350.0          0.1000E-06
     11      1     11     18       350.0          0.1000E-06
     12      1     12     18       350.0          0.1000E-06
     13      1     13     18       350.0          0.1000E-06
     14      1     14     18       350.0          0.1000E-06
     15      1     15     18       350.0          0.1000E-06
     16      1     16     18       350.0          0.1000E-06
     17      1     17     18       350.0          0.1000E-06
     18      1     18     18       350.0          0.1000E-06
     19      2      1     18       350.0          0.1000E-06
     20      2      2     18       350.0          0.1000E-06
     21      2      3     18       350.0          0.1000E-06
     22      2      4     18       350.0          0.1000E-06
     23      2      5     18       350.0          0.1000E-06
     24      2      6     18       350.0          0.1000E-06
     25      2      7     18       350.0          0.1000E-06
     26      2      8     18       350.0          0.1000E-06
     27      2      9     18       350.0          0.1000E-06
     28      2     10     18       350.0          0.1000E-06
     29      2     11     18       350.0          0.1000E-06
     30      2     12     18       350.0          0.1000E-06
     31      2     13     18       350.0          0.1000E-06
     32      2     14     18       350.0          0.1000E-06
     33      2     15     18       350.0          0.1000E-06
     34      2     16     18       350.0          0.1000E-06
     35      2     17     18       350.0          0.1000E-06
     36      2     18     18       350.0          0.1000E-06

    36 GHB CELLS



 RECH array defined by the following parameters:
  Parameter:  RCH_ZONE_1
  Parameter:  RCH_ZONE_2


                           RECHARGE

            1           2           3           4           5           6
            7           8           9          10          11          12
           13          14          15          16          17          18
 ........................................................................
   1   1.0819E-08  1.0819E-08  1.0819E-08  1.0819E-08  1.0819E-08  1.0819E-08
       1.0819E-08  1.0819E-08  1.0819E-08  1.6009E-08  1.6009E-08  1.6009E-08
       1.6009E-08  1.6009E-08  1.6009E-08  1.6009E-08  1.6009E-08  1.6009E-08
   2   1.0819E-08  1.0819E-08  1.0819E-08  1.0819E-08  1.0819E-08  1.0819E-08
       1.0819E-08  1.0819E-08  1.0819E-08  1.6009E-08  1.6009E-08  1.6009E-08
       1.6009E-08  1.6009E-08  1.6009E-08  1.6009E-08  1.6009E-08  1.6009E-08
   3   1.0819E-08  1.0819E-08  1.0819E-08  1.0819E-08  1.0819E-08  1.0819E-08
       1.0819E-08  1.0819E-08  1.0819E-08  1.6009E-08  1.6009E-08  1.6009E-08
       1.6009E-08  1.6009E-08  1.6009E-08  1.6009E-08  1.6009E-08  1.6009E-08
   4   1.0819E-08  1.0819E-08  1.0819E-08  1.0819E-08  1.0819E-08  1.0819E-08
       1.0819E-08  1.0819E-08  1.0819E-08  1.6009E-08  1.6009E-08  1.6009E-08
       1.6009E-08  1.6009E-08  1.6009E-08  1.6009E-08  1.6009E-08  1.6009E-08
   5   1.0819E-08  1.0819E-08  1.0819E-08  1.0819E-08  1.0819E-08  1.0819E-08
       1.0819E-08  1.0819E-08  1.0819E-08  1.6009E-08  1.6009E-08  1.6009E-08
       1.6009E-08  1.6009E-08  1.6009E-08  1.6009E-08  1.6009E-08  1.6009E-08
   6   1.0819E-08  1.0819E-08  1.0819E-08  1.0819E-08  1.0819E-08  1.0819E-08
       1.0819E-08  1.0819E-08  1.0819E-08  1.6009E-08  1.6009E-08  1.6009E-08
       1.6009E-08  1.6009E-08  1.6009E-08  1.6009E-08  1.6009E-08  1.6009E-08
   7   1.0819E-08  1.0819E-08  1.0819E-08  1.0819E-08  1.0819E-08  1.0819E-08
       1.0819E-08  1.0819E-08  1.0819E-08  1.6009E-08  1.6009E-08  1.6009E-08
       1.6009E-08  1.6009E-08  1.6009E-08  1.6009E-08  1.6009E-08  1.6009E-08
   8   1.0819E-08  1.0819E-08  1.0819E-08  1.0819E-08  1.0819E-08  1.0819E-08
       1.0819E-08  1.0819E-08  1.0819E-08  1.6009E-08  1.6009E-08  1.6009E-08
       1.6009E-08  1.6009E-08  1.6009E-08  1.6009E-08  1.6009E-08  1.6009E-08
   9   1.0819E-08  1.0819E-08  1.0819E-08  1.0819E-08  1.0819E-08  1.0819E-08
       1.0819E-08  1.0819E-08  1.0819E-08  1.6009E-08  1.6009E-08  1.6009E-08
       1.6009E-08  1.6009E-08  1.6009E-08  1.6009E-08  1.6009E-08  1.6009E-08
  10   1.0819E-08  1.0819E-08  1.0819E-08  1.0819E-08  1.0819E-08  1.0819E-08
       1.0819E-08  1.0819E-08  1.0819E-08  1.6009E-08  1.6009E-08  1.6009E-08
       1.6009E-08  1.6009E-08  1.6009E-08  1.6009E-08  1.6009E-08  1.6009E-08
  11   1.0819E-08  1.0819E-08  1.0819E-08  1.0819E-08  1.0819E-08  1.0819E-08
       1.0819E-08  1.0819E-08  1.0819E-08  1.6009E-08  1.6009E-08  1.6009E-08
       1.6009E-08  1.6009E-08  1.6009E-08  1.6009E-08  1.6009E-08  1.6009E-08
  12   1.0819E-08  1.0819E-08  1.0819E-08  1.0819E-08  1.0819E-08  1.0819E-08
       1.0819E-08  1.0819E-08  1.0819E-08  1.6009E-08  1.6009E-08  1.6009E-08
       1.6009E-08  1.6009E-08  1.6009E-08  1.6009E-08  1.6009E-08  1.6009E-08
  13   1.0819E-08  1.0819E-08  1.0819E-08  1.0819E-08  1.0819E-08  1.0819E-08
       1.0819E-08  1.0819E-08  1.0819E-08  1.6009E-08  1.6009E-08  1.6009E-08
       1.6009E-08  1.6009E-08  1.6009E-08  1.6009E-08  1.6009E-08  1.6009E-08
  14   1.0819E-08  1.0819E-08  1.0819E-08  1.0819E-08  1.0819E-08  1.0819E-08
       1.0819E-08  1.0819E-08  1.0819E-08  1.6009E-08  1.6009E-08  1.6009E-08
       1.6009E-08  1.6009E-08  1.6009E-08  1.6009E-08  1.6009E-08  1.6009E-08
  15   1.0819E-08  1.0819E-08  1.0819E-08  1.0819E-08  1.0819E-08  1.0819E-08
       1.0819E-08  1.0819E-08  1.0819E-08  1.6009E-08  1.6009E-08  1.6009E-08
       1.6009E-08  1.6009E-08  1.6009E-08  1.6009E-08  1.6009E-08  1.6009E-08
  16   1.0819E-08  1.0819E-08  1.0819E-08  1.0819E-08  1.0819E-08  1.0819E-08
       1.0819E-08  1.0819E-08  1.0819E-08  1.6009E-08  1.6009E-08  1.6009E-08
       1.6009E-08  1.6009E-08  1.6009E-08  1.6009E-08  1.6009E-08  1.6009E-08
  17   1.0819E-08  1.0819E-08  1.0819E-08  1.0819E-08  1.0819E-08  1.0819E-08
       1.0819E-08  1.0819E-08  1.0819E-08  1.6009E-08  1.6009E-08  1.6009E-08
       1.6009E-08  1.6009E-08  1.6009E-08  1.6009E-08  1.6009E-08  1.6009E-08
  18   1.0819E-08  1.0819E-08  1.0819E-08  1.0819E-08  1.0819E-08  1.0819E-08
       1.0819E-08  1.0819E-08  1.0819E-08  1.6009E-08  1.6009E-08  1.6009E-08
       1.6009E-08  1.6009E-08  1.6009E-08  1.6009E-08  1.6009E-08  1.6009E-08
 
 SOLVING FOR HEAD 

 OUTPUT CONTROL FOR STRESS PERIOD  1   TIME STEP  1
    PRINT HEAD FOR ALL LAYERS
1
              HEAD IN LAYER  1 AT END OF TIME STEP  1 IN STRESS PERIOD  1
  -----------------------------------------------------------------------

          1      2      3      4      5      6      7      8      9     10
         11     12     13     14     15     16     17     18
 .........................................................................
   1   100.2  110.0  118.9  127.0  134.3  140.9  146.9  152.3  157.1  161.5
       165.2  168.4  171.0  173.1  174.8  176.0  176.7  177.1
   2   100.2  110.0  118.9  127.0  134.3  140.9  146.9  152.3  157.1  161.5
       165.2  168.4  171.0  173.1  174.8  176.0  176.7  177.1
   3   100.2  110.0  118.9  127.0  134.3  140.9  146.9  152.3  157.1  161.5
       165.2  168.4  171.0  173.1  174.8  176.0  176.7  177.1
   4   100.2  110.0  118.9  127.0  134.3  140.9  146.9  152.3  157.1  161.5
       165.2  168.4  171.0  173.1  174.8  176.0  176.7  177.1
   5   100.2  110.0  118.9  127.0  134.3  140.9  146.9  152.3  157.1  161.5
       165.2  168.4  171.0  173.1  174.8  176.0  176.7  177.1
   6   100.2  110.0  118.9  127.0  134.3  140.9  146.9  152.3  157.1  161.5
       165.2  168.4  171.0  173.1  174.8  176.0  176.7  177.1
   7   100.2  110.0  118.9  127.0  134.3  140.9  146.9  152.3  157.1  161.5
       165.2  168.4  171.0  173.1  174.8  176.0  176.7  177.1
   8   100.2  110.0  118.9  127.0  134.3  140.9  146.9  152.3  157.1  161.5
       165.2  168.4  171.0  173.1  174.8  176.0  176.7  177.1
   9   100.2  110.0  118.9  127.0  134.3  140.9  146.9  152.3  157.1  161.5
       165.2  168.4  171.0  173.1  174.8  176.0  176.7  177.1
  10   100.2  110.0  118.9  127.0  134.3  140.9  146.9  152.3  157.1  161.5
       165.2  168.4  171.0  173.1  174.8  176.0  176.7  177.1
  11   100.2  110.0  118.9  127.0  134.3  140.9  146.9  152.3  157.1  161.5
       165.2  168.4  171.0  173.1  174.8  176.0  176.7  177.1
  12   100.2  110.0  118.9  127.0  134.3  140.9  146.9  152.3  157.1  161.5
       165.2  168.4  171.0  173.1  174.8  176.0  176.7  177.1
  13   100.2  110.0  118.9  127.0  134.3  140.9  146.9  152.3  157.1  161.5
       165.2  168.4  171.0  173.1  174.8  176.0  176.7  177.1
  14   100.2  110.0  118.9  127.0  134.3  140.9  146.9  152.3  157.1  161.5
       165.2  168.4  171.0  173.1  174.8  176.0  176.7  177.1
  15   100.2  110.0  118.9  127.0  134.3  140.9  146.9  152.3  157.1  161.5
       165.2  168.4  171.0  173.1  174.8  176.0  176.7  177.1
  16   100.2  110.0  118.9  127.0  134.3  140.9  146.9  152.3  157.1  161.5
       165.2  168.4  171.0  173.1  174.8  176.0  176.7  177.1
  17   100.2  110.0  118.9  127.0  134.3  140.9  146.9  152.3  157.1  161.5
       165.2  168.4  171.0  173.1  174.8  176.0  176.7  177.1
  18   100.2  110.0  118.9  127.0  134.3  140.9  146.9  152.3  157.1  161.5
       165.2  168.4  171.0  173.1  174.8  176.0  176.7  177.1
1
              HEAD IN LAYER  2 AT END OF TIME STEP  1 IN STRESS PERIOD  1
  -----------------------------------------------------------------------

          1      2      3      4      5      6      7      8      9     10
         11     12     13     14     15     16     17     18
 .........................................................................
   1   101.2  110.3  119.4  127.2  134.5  141.0  147.0  152.3  157.1  161.4
       165.1  168.2  170.8  172.8  174.5  175.6  176.4  176.7
   2   101.2  110.3  119.4  127.2  134.5  141.0  147.0  152.3  157.1  161.4
       165.1  168.2  170.8  172.8  174.5  175.6  176.4  176.7
   3   101.2  110.3  119.4  127.2  134.5  141.0  147.0  152.3  157.1  161.4
       165.1  168.2  170.8  172.8  174.5  175.6  176.4  176.7
   4   101.2  110.3  119.4  127.2  134.5  141.0  147.0  152.3  157.1  161.4
       165.1  168.2  170.8  172.8  174.5  175.6  176.4  176.7
   5   101.2  110.3  119.4  127.2  134.5  141.0  147.0  152.3  157.1  161.4
       165.1  168.2  170.8  172.8  174.5  175.6  176.4  176.7
   6   101.2  110.3  119.4  127.2  134.5  141.0  147.0  152.3  157.1  161.4
       165.1  168.2  170.8  172.8  174.5  175.6  176.4  176.7
   7   101.2  110.3  119.4  127.2  134.5  141.0  147.0  152.3  157.1  161.4
       165.1  168.2  170.8  172.8  174.5  175.6  176.4  176.7
   8   101.2  110.3  119.4  127.2  134.5  141.0  147.0  152.3  157.1  161.4
       165.1  168.2  170.8  172.8  174.5  175.6  176.4  176.7
   9   101.2  110.3  119.4  127.2  134.5  141.0  147.0  152.3  157.1  161.4
       165.1  168.2  170.8  172.8  174.5  175.6  176.4  176.7
  10   101.2  110.3  119.4  127.2  134.5  141.0  147.0  152.3  157.1  161.4
       165.1  168.2  170.8  172.8  174.5  175.6  176.4  176.7
  11   101.2  110.3  119.4  127.2  134.5  141.0  147.0  152.3  157.1  161.4
       165.1  168.2  170.8  172.8  174.5  175.6  176.4  176.7
  12   101.2  110.3  119.4  127.2  134.5  141.0  147.0  152.3  157.1  161.4
       165.1  168.2  170.8  172.8  174.5  175.6  176.4  176.7
  13   101.2  110.3  119.4  127.2  134.5  141.0  147.0  152.3  157.1  161.4
       165.1  168.2  170.8  172.8  174.5  175.6  176.4  176.7
  14   101.2  110.3  119.4  127.2  134.5  141.0  147.0  152.3  157.1  161.4
       165.1  168.2  170.8  172.8  174.5  175.6  176.4  176.7
  15   101.2  110.3  119.4  127.2  134.5  141.0  147.0  152.3  157.1  161.4
       165.1  168.2  170.8  172.8  174.5  175.6  176.4  176.7
  16   101.2  110.3  119.4  127.2  134.5  141.0  147.0  152.3  157.1  161.4
       165.1  168.2  170.8  172.8  174.5  175.6  176.4  176.7
  17   101.2  110.3  119.4  127.2  134.5  141.0  147.0  152.3  157.1  161.4
       165.1  168.2  170.8  172.8  174.5  175.6  176.4  176.7
  18   101.2  110.3  119.4  127.2  134.5  141.0  147.0  152.3  157.1  161.4
       165.1  168.2  170.8  172.8  174.5  175.6  176.4  176.7
1
  VOLUMETRIC BUDGET FOR ENTIRE MODEL AT END OF TIME STEP  1 IN STRESS PERIOD  1
  -----------------------------------------------------------------------------

     CUMULATIVE VOLUMES      L**3       RATES FOR THIS TIME STEP      L**3/T
     ------------------                 ------------------------

           IN:                                      IN:
           ---                                      ---
             STORAGE =           0.0000               STORAGE =           0.0000
       CONSTANT HEAD =           0.0000         CONSTANT HEAD =           0.0000
               WELLS =           0.0000                 WELLS =           0.0000
       RIVER LEAKAGE =           0.0000         RIVER LEAKAGE =           0.0000
     HEAD DEP BOUNDS =       6.2304E-04       HEAD DEP BOUNDS =       6.2304E-04
            RECHARGE =           4.3461              RECHARGE =           4.3461

            TOTAL IN =           4.3467              TOTAL IN =           4.3467

          OUT:                                     OUT:
          ----                                     ----
             STORAGE =           0.0000               STORAGE =           0.0000
       CONSTANT HEAD =           0.0000         CONSTANT HEAD =           0.0000
               WELLS =           0.0000                 WELLS =           0.0000
       RIVER LEAKAGE =           4.3467         RIVER LEAKAGE =           4.3467
     HEAD DEP BOUNDS =           0.0000       HEAD DEP BOUNDS =           0.0000
            RECHARGE =           0.0000              RECHARGE =           0.0000

           TOTAL OUT =           4.3467             TOTAL OUT =           4.3467

            IN - OUT =       2.0504E-05              IN - OUT =       2.0504E-05

 PERCENT DISCREPANCY =           0.00     PERCENT DISCREPANCY =           0.00






          TIME SUMMARY AT END OF TIME STEP  1 IN STRESS PERIOD  1
                    SECONDS     MINUTES      HOURS       DAYS        YEARS
                    -----------------------------------------------------------
   TIME STEP LENGTH  1.0000     1.66667E-02 2.77778E-04 1.15741E-05 3.16881E-08
 STRESS PERIOD TIME  1.0000     1.66667E-02 2.77778E-04 1.15741E-05 3.16881E-08
         TOTAL TIME  1.0000     1.66667E-02 2.77778E-04 1.15741E-05 3.16881E-08
1
1
                            STRESS PERIOD NO.   2, LENGTH =   87162.00    
                            ----------------------------------------------

                              NUMBER OF TIME STEPS =     1

                               MULTIPLIER FOR DELT =     1.000

                            INITIAL TIME STEP SIZE =   87162.00    

 Parameter:  WELLS_TR
 WELL NO.  LAYER   ROW   COL   STRESS RATE   
 --------------------------------------------
      1      1      9     10      -1.074    
      2      2      9     10      -1.074    

     2 WELLS

 Parameter:  RIVERS
 REACH NO.  LAYER   ROW   COL     STAGE      CONDUCTANCE     BOTTOM EL.   
 -------------------------------------------------------------------------
      1      1      1      1       100.0           1.382           90.00    
      2      1      2      1       100.0           1.382           90.00    
      3      1      3      1       100.0           1.382           90.00    
      4      1      4      1       100.0           1.382           90.00    
      5      1      5      1       100.0           1.382           90.00    
      6      1      6      1       100.0           1.382           90.00    
      7      1      7      1       100.0           1.382           90.00    
      8      1      8      1       100.0           1.382           90.00    
      9      1      9      1       100.0           1.382           90.00    
     10      1     10      1       100.0           1.382           90.00    
     11      1     11      1       100.0           1.382           90.00    
     12      1     12      1       100.0           1.382           90.00    
     13      1     13      1       100.0           1.382           90.00    
     14      1     14      1       100.0           1.382           90.00    
     15      1     15      1       100.0           1.382           90.00    
     16      1     16      1       100.0           1.382           90.00    
     17      1     17      1       100.0           1.382           90.00    
     18      1     18      1       100.0           1.382           90.00    

    18 RIVER REACHES

 REUSING NON-PARAMETER GHB CELLS FROM LAST STRESS PERIOD

    36 GHB CELLS

 REUSING RECH FROM LAST STRESS PERIOD
 
 SOLVING FOR HEAD 

 OUTPUT CONTROL FOR STRESS PERIOD  2   TIME STEP  1
    PRINT HEAD FOR ALL LAYERS
1
              HEAD IN LAYER  1 AT END OF TIME STEP  1 IN STRESS PERIOD  2
  -----------------------------------------------------------------------

          1      2      3      4      5      6      7      8      9     10
         11     12     13     14     15     16     17     18
 .........................................................................
   1   100.2  110.0  118.9  127.0  134.3  140.9  146.9  152.2  157.1  161.4
       165.2  168.3  171.0  173.1  174.7  175.9  176.7  177.1
   2   100.2  110.0  118.9  127.0  134.3  140.9  146.8  152.2  157.0  161.4
       165.1  168.3  170.9  173.1  174.7  175.9  176.7  177.1
   3   100.2  110.0  118.9  127.0  134.3  140.9  146.8  152.2  157.0  161.3
       165.1  168.3  170.9  173.0  174.7  175.9  176.7  177.1
   4   100.2  110.0  118.9  127.0  134.3  140.8  146.7  152.1  156.8  161.2
       164.9  168.1  170.8  173.0  174.7  175.9  176.7  177.1
   5   100.2  110.0  118.9  126.9  134.2  140.7  146.6  151.9  156.6  160.9
       164.7  167.9  170.7  172.9  174.6  175.9  176.7  177.1
   6   100.2  110.0  118.9  126.9  134.2  140.6  146.4  151.5  156.0  160.2
       164.1  167.6  170.5  172.8  174.6  175.8  176.7  177.1
   7   100.2  110.0  118.9  126.9  134.1  140.5  146.1  150.9  154.9  158.5
       163.0  167.0  170.2  172.7  174.5  175.8  176.6  177.0
   8   100.2  110.0  118.9  126.9  134.1  140.4  145.8  150.0  152.8  154.4
       160.9  166.1  169.9  172.5  174.4  175.8  176.6  177.0
   9   100.2  110.0  118.9  126.9  134.0  140.3  145.6  149.3  150.0  142.6
       158.2  165.4  169.6  172.5  174.4  175.8  176.6  177.0
  10   100.2  110.0  118.9  126.9  134.1  140.4  145.8  150.0  152.8  154.4
       160.9  166.1  169.9  172.5  174.4  175.8  176.6  177.0
  11   100.2  110.0  118.9  126.9  134.1  140.5  146.1  150.9  154.9  158.5
       163.0  167.0  170.2  172.7  174.5  175.8  176.6  177.0
  12   100.2  110.0  118.9  126.9  134.2  140.6  146.4  151.5  156.0  160.2
       164.1  167.6  170.5  172.8  174.6  175.8  176.7  177.1
  13   100.2  110.0  118.9  126.9  134.2  140.7  146.6  151.9  156.6  160.9
       164.7  167.9  170.7  172.9  174.6  175.9  176.7  177.1
  14   100.2  110.0  118.9  127.0  134.3  140.8  146.7  152.1  156.8  161.2
       164.9  168.1  170.8  173.0  174.7  175.9  176.7  177.1
  15   100.2  110.0  118.9  127.0  134.3  140.9  146.8  152.2  157.0  161.3
       165.1  168.3  170.9  173.0  174.7  175.9  176.7  177.1
  16   100.2  110.0  118.9  127.0  134.3  140.9  146.8  152.2  157.1  161.4
       165.1  168.3  170.9  173.1  174.7  175.9  176.7  177.1
  17   100.2  110.0  118.9  127.0  134.3  140.9  146.9  152.2  157.1  161.4
       165.2  168.3  171.0  173.1  174.7  175.9  176.7  177.1
  18   100.2  110.0  118.9  127.0  134.3  140.9  146.9  152.3  157.1  161.5
       165.2  168.4  171.0  173.1  174.7  175.9  176.7  177.1
1
              HEAD IN LAYER  2 AT END OF TIME STEP  1 IN STRESS PERIOD  2
  -----------------------------------------------------------------------

          1      2      3      4      5      6      7      8      9     10
         11     12     13     14     15     16     17     18
 .........................................................................
   1   101.2  110.3  119.3  127.2  134.5  141.0  146.9  152.2  157.0  161.3
       165.0  168.1  170.7  172.8  174.4  175.6  176.4  176.7
   2   101.2  110.3  119.3  127.2  134.5  141.0  146.9  152.2  157.0  161.3
       165.0  168.1  170.7  172.8  174.4  175.6  176.4  176.7
   3   101.2  110.3  119.3  127.2  134.5  141.0  146.9  152.2  156.9  161.2
       164.9  168.0  170.6  172.7  174.4  175.6  176.3  176.7
   4   101.2  110.3  119.3  127.2  134.5  140.9  146.8  152.0  156.8  161.0
       164.7  167.9  170.5  172.7  174.3  175.6  176.3  176.7
   5   101.2  110.3  119.3  127.1  134.4  140.8  146.7  151.8  156.4  160.6
       164.3  167.6  170.4  172.6  174.3  175.5  176.3  176.7
   6   101.2  110.3  119.3  127.1  134.4  140.7  146.4  151.3  155.7  159.7
       163.6  167.2  170.1  172.4  174.2  175.5  176.3  176.7
   7   101.2  110.3  119.3  127.1  134.3  140.5  146.0  150.6  154.3  157.6
       162.3  166.4  169.8  172.3  174.1  175.4  176.3  176.7
   8   101.2  110.3  119.3  127.1  134.2  140.4  145.6  149.5  151.6  152.1
       159.6  165.4  169.3  172.1  174.1  175.4  176.2  176.6
   9   101.2  110.3  119.3  127.0  134.2  140.3  145.3  148.5  147.7  134.3
       155.9  164.4  169.1  172.0  174.0  175.4  176.2  176.6
  10   101.2  110.3  119.3  127.1  134.2  140.4  145.6  149.5  151.6  152.1
       159.6  165.4  169.3  172.1  174.1  175.4  176.2  176.6
  11   101.2  110.3  119.3  127.1  134.3  140.5  146.0  150.6  154.3  157.6
       162.3  166.4  169.8  172.3  174.1  175.4  176.3  176.7
  12   101.2  110.3  119.3  127.1  134.4  140.7  146.4  151.4  155.7  159.7
       163.6  167.2  170.1  172.4  174.2  175.5  176.3  176.7
  13   101.2  110.3  119.3  127.1  134.4  140.8  146.7  151.8  156.4  160.6
       164.3  167.6  170.4  172.6  174.3  175.5  176.3  176.7
  14   101.2  110.3  119.3  127.2  134.5  140.9  146.8  152.0  156.8  161.0
       164.7  167.9  170.5  172.7  174.4  175.6  176.3  176.7
  15   101.2  110.3  119.3  127.2  134.5  141.0  146.9  152.2  156.9  161.2
       164.9  168.0  170.6  172.7  174.4  175.6  176.3  176.7
  16   101.2  110.3  119.3  127.2  134.5  141.0  146.9  152.2  157.0  161.3
       165.0  168.1  170.7  172.8  174.4  175.6  176.4  176.7
  17   101.2  110.3  119.4  127.2  134.5  141.0  147.0  152.3  157.1  161.3
       165.0  168.1  170.7  172.8  174.4  175.6  176.4  176.7
  18   101.2  110.3  119.4  127.2  134.5  141.0  147.0  152.3  157.1  161.3
       165.0  168.1  170.7  172.8  174.4  175.6  176.4  176.7
1
  VOLUMETRIC BUDGET FOR ENTIRE MODEL AT END OF TIME STEP  1 IN STRESS PERIOD  2
  -----------------------------------------------------------------------------

     CUMULATIVE VOLUMES      L**3       RATES FOR THIS TIME STEP      L**3/T
     ------------------                 ------------------------

           IN:                                      IN:
           ---                                      ---
             STORAGE =      186854.3280               STORAGE =           2.1438
       CONSTANT HEAD =           0.0000         CONSTANT HEAD =           0.0000
               WELLS =           0.0000                 WELLS =           0.0000
       RIVER LEAKAGE =           0.0000         RIVER LEAKAGE =           0.0000
     HEAD DEP BOUNDS =          54.3216       HEAD DEP BOUNDS =       6.2322E-04
            RECHARGE =      378818.0940              RECHARGE =           4.3461

            TOTAL IN =      565726.7500              TOTAL IN =           6.4905

          OUT:                                     OUT:
          ----                                     ----
             STORAGE =           0.0000               STORAGE =           0.0000
       CONSTANT HEAD =           0.0000         CONSTANT HEAD =           0.0000
               WELLS =      187245.0000                 WELLS =           2.1482
       RIVER LEAKAGE =      378483.9060         RIVER LEAKAGE =           4.3423
     HEAD DEP BOUNDS =           0.0000       HEAD DEP BOUNDS =           0.0000
            RECHARGE =           0.0000              RECHARGE =           0.0000

           TOTAL OUT =      565728.8750             TOTAL OUT =           6.4905

            IN - OUT =          -2.1250              IN - OUT =      -2.5272E-05

 PERCENT DISCREPANCY =           0.00     PERCENT DISCREPANCY =           0.00






          TIME SUMMARY AT END OF TIME STEP  1 IN STRESS PERIOD  2
                    SECONDS     MINUTES      HOURS       DAYS        YEARS
                    -----------------------------------------------------------
   TIME STEP LENGTH  87162.      1452.7      24.212      1.0088     2.76200E-03
 STRESS PERIOD TIME  87162.      1452.7      24.212      1.0088     2.76200E-03
         TOTAL TIME  87163.      1452.7      24.212      1.0088     2.76203E-03
1
1
                            STRESS PERIOD NO.   3, LENGTH =   261486.0    
                            ----------------------------------------------

                              NUMBER OF TIME STEPS =     1

                               MULTIPLIER FOR DELT =     1.000

                            INITIAL TIME STEP SIZE =   261486.0    

 Parameter:  WELLS_TR
 WELL NO.  LAYER   ROW   COL   STRESS RATE   
 --------------------------------------------
      1      1      9     10      -1.074    
      2      2      9     10      -1.074    

     2 WELLS

 Parameter:  RIVERS
 REACH NO.  LAYER   ROW   COL     STAGE      CONDUCTANCE     BOTTOM EL.   
 -------------------------------------------------------------------------
      1      1      1      1       100.0           1.382           90.00    
      2      1      2      1       100.0           1.382           90.00    
      3      1      3      1       100.0           1.382           90.00    
      4      1      4      1       100.0           1.382           90.00    
      5      1      5      1       100.0           1.382           90.00    
      6      1      6      1       100.0           1.382           90.00    
      7      1      7      1       100.0           1.382           90.00    
      8      1      8      1       100.0           1.382           90.00    
      9      1      9      1       100.0           1.382           90.00    
     10      1     10      1       100.0           1.382           90.00    
     11      1     11      1       100.0           1.382           90.00    
     12      1     12      1       100.0           1.382           90.00    
     13      1     13      1       100.0           1.382           90.00    
     14      1     14      1       100.0           1.382           90.00    
     15      1     15      1       100.0           1.382           90.00    
     16      1     16      1       100.0           1.382           90.00    
     17      1     17      1       100.0           1.382           90.00    
     18      1     18      1       100.0           1.382           90.00    

    18 RIVER REACHES

 REUSING NON-PARAMETER GHB CELLS FROM LAST STRESS PERIOD

    36 GHB CELLS

 REUSING RECH FROM LAST STRESS PERIOD
 
 SOLVING FOR HEAD 

 NO OUTPUT CONTROL FOR STRESS PERIOD  3   TIME STEP  1
1
  VOLUMETRIC BUDGET FOR ENTIRE MODEL AT END OF TIME STEP  1 IN STRESS PERIOD  3
  -----------------------------------------------------------------------------

     CUMULATIVE VOLUMES      L**3       RATES FOR THIS TIME STEP      L**3/T
     ------------------                 ------------------------

           IN:                                      IN:
           ---                                      ---
             STORAGE =      728103.2500               STORAGE =           2.0699
       CONSTANT HEAD =           0.0000         CONSTANT HEAD =           0.0000
               WELLS =           0.0000                 WELLS =           0.0000
       RIVER LEAKAGE =           0.0000         RIVER LEAKAGE =           0.0000
     HEAD DEP BOUNDS =         217.9756       HEAD DEP BOUNDS =       6.2586E-04
            RECHARGE =     1515259.3800              RECHARGE =           4.3461

            TOTAL IN =     2243580.5000              TOTAL IN =           6.4166

          OUT:                                     OUT:
          ----                                     ----
             STORAGE =           0.0000               STORAGE =           0.0000
       CONSTANT HEAD =           0.0000         CONSTANT HEAD =           0.0000
               WELLS =      748980.0000                 WELLS =           2.1482
       RIVER LEAKAGE =     1494609.2500         RIVER LEAKAGE =           4.2684
     HEAD DEP BOUNDS =           0.0000       HEAD DEP BOUNDS =           0.0000
            RECHARGE =           0.0000              RECHARGE =           0.0000

           TOTAL OUT =     2243589.2500             TOTAL OUT =           6.4166

            IN - OUT =          -8.7500              IN - OUT =      -2.4796E-05

 PERCENT DISCREPANCY =           0.00     PERCENT DISCREPANCY =           0.00






          TIME SUMMARY AT END OF TIME STEP  1 IN STRESS PERIOD  3
                    SECONDS     MINUTES      HOURS       DAYS        YEARS
                    -----------------------------------------------------------
   TIME STEP LENGTH 2.61486E+05  4358.1      72.635      3.0265     8.28599E-03
 STRESS PERIOD TIME 2.61486E+05  4358.1      72.635      3.0265     8.28599E-03
         TOTAL TIME 3.48649E+05  5810.8      96.847      4.0353     1.10480E-02
1
1
                            STRESS PERIOD NO.   4, LENGTH =   522972.0    
                            ----------------------------------------------

                              NUMBER OF TIME STEPS =     1

                               MULTIPLIER FOR DELT =     1.000

                            INITIAL TIME STEP SIZE =   522972.0    

 Parameter:  WELLS_TR
 WELL NO.  LAYER   ROW   COL   STRESS RATE   
 --------------------------------------------
      1      1      9     10      -1.074    
      2      2      9     10      -1.074    

     2 WELLS

 Parameter:  RIVERS
 REACH NO.  LAYER   ROW   COL     STAGE      CONDUCTANCE     BOTTOM EL.   
 -------------------------------------------------------------------------
      1      1      1      1       100.0           1.382           90.00    
      2      1      2      1       100.0           1.382           90.00    
      3      1      3      1       100.0           1.382           90.00    
      4      1      4      1       100.0           1.382           90.00    
      5      1      5      1       100.0           1.382           90.00    
      6      1      6      1       100.0           1.382           90.00    
      7      1      7      1       100.0           1.382           90.00    
      8      1      8      1       100.0           1.382           90.00    
      9      1      9      1       100.0           1.382           90.00    
     10      1     10      1       100.0           1.382           90.00    
     11      1     11      1       100.0           1.382           90.00    
     12      1     12      1       100.0           1.382           90.00    
     13      1     13      1       100.0           1.382           90.00    
     14      1     14      1       100.0           1.382           90.00    
     15      1     15      1       100.0           1.382           90.00    
     16      1     16      1       100.0           1.382           90.00    
     17      1     17      1       100.0           1.382           90.00    
     18      1     18      1       100.0           1.382           90.00    

    18 RIVER REACHES

 REUSING NON-PARAMETER GHB CELLS FROM LAST STRESS PERIOD

    36 GHB CELLS

 REUSING RECH FROM LAST STRESS PERIOD
 
 SOLVING FOR HEAD 

 NO OUTPUT CONTROL FOR STRESS PERIOD  4   TIME STEP  1
1
  VOLUMETRIC BUDGET FOR ENTIRE MODEL AT END OF TIME STEP  1 IN STRESS PERIOD  4
  -----------------------------------------------------------------------------

     CUMULATIVE VOLUMES      L**3       RATES FOR THIS TIME STEP      L**3/T
     ------------------                 ------------------------

           IN:                                      IN:
           ---                                      ---
             STORAGE =     1700689.6300               STORAGE =           1.8597
       CONSTANT HEAD =           0.0000         CONSTANT HEAD =           0.0000
               WELLS =           0.0000                 WELLS =           0.0000
       RIVER LEAKAGE =           0.0000         RIVER LEAKAGE =           0.0000
     HEAD DEP BOUNDS =         550.0145       HEAD DEP BOUNDS =       6.3491E-04
            RECHARGE =     3788142.0000              RECHARGE =           4.3461

            TOTAL IN =     5489381.5000              TOTAL IN =           6.2065

          OUT:                                     OUT:
          ----                                     ----
             STORAGE =           0.0000               STORAGE =           0.0000
       CONSTANT HEAD =           0.0000         CONSTANT HEAD =           0.0000
               WELLS =     1872450.0000                 WELLS =           2.1482
       RIVER LEAKAGE =     3616937.2500         RIVER LEAKAGE =           4.0582
     HEAD DEP BOUNDS =           0.0000       HEAD DEP BOUNDS =           0.0000
            RECHARGE =           0.0000              RECHARGE =           0.0000

           TOTAL OUT =     5489387.0000             TOTAL OUT =           6.2064

            IN - OUT =          -5.5000              IN - OUT =       6.1989E-06

 PERCENT DISCREPANCY =           0.00     PERCENT DISCREPANCY =           0.00






          TIME SUMMARY AT END OF TIME STEP  1 IN STRESS PERIOD  4
                    SECONDS     MINUTES      HOURS       DAYS        YEARS
                    -----------------------------------------------------------
   TIME STEP LENGTH 5.22972E+05  8716.2      145.27      6.0529     1.65720E-02
 STRESS PERIOD TIME 5.22972E+05  8716.2      145.27      6.0529     1.65720E-02
         TOTAL TIME 8.71621E+05  14527.      242.12      10.088     2.76200E-02
1
1
                            STRESS PERIOD NO.   5, LENGTH =  0.2356745E+08
                            ----------------------------------------------

                              NUMBER OF TIME STEPS =     9

                               MULTIPLIER FOR DELT =     1.200

                            INITIAL TIME STEP SIZE =   1133111.    

 Parameter:  WELLS_TR
 WELL NO.  LAYER   ROW   COL   STRESS RATE   
 --------------------------------------------
      1      1      9     10      -1.074    
      2      2      9     10      -1.074    

     2 WELLS

 Parameter:  RIVERS
 REACH NO.  LAYER   ROW   COL     STAGE      CONDUCTANCE     BOTTOM EL.   
 -------------------------------------------------------------------------
      1      1      1      1       100.0           1.382           90.00    
      2      1      2      1       100.0           1.382           90.00    
      3      1      3      1       100.0           1.382           90.00    
      4      1      4      1       100.0           1.382           90.00    
      5      1      5      1       100.0           1.382           90.00    
      6      1      6      1       100.0           1.382           90.00    
      7      1      7      1       100.0           1.382           90.00    
      8      1      8      1       100.0           1.382           90.00    
      9      1      9      1       100.0           1.382           90.00    
     10      1     10      1       100.0           1.382           90.00    
     11      1     11      1       100.0           1.382           90.00    
     12      1     12      1       100.0           1.382           90.00    
     13      1     13      1       100.0           1.382           90.00    
     14      1     14      1       100.0           1.382           90.00    
     15      1     15      1       100.0           1.382           90.00    
     16      1     16      1       100.0           1.382           90.00    
     17      1     17      1       100.0           1.382           90.00    
     18      1     18      1       100.0           1.382           90.00    

    18 RIVER REACHES

 REUSING NON-PARAMETER GHB CELLS FROM LAST STRESS PERIOD

    36 GHB CELLS

 REUSING RECH FROM LAST STRESS PERIOD
 
 SOLVING FOR HEAD 

 NO OUTPUT CONTROL FOR STRESS PERIOD  5   TIME STEP  1
 
 SOLVING FOR HEAD 

 NO OUTPUT CONTROL FOR STRESS PERIOD  5   TIME STEP  2
 
 SOLVING FOR HEAD 

 NO OUTPUT CONTROL FOR STRESS PERIOD  5   TIME STEP  3
 
 SOLVING FOR HEAD 

 NO OUTPUT CONTROL FOR STRESS PERIOD  5   TIME STEP  4
 
 SOLVING FOR HEAD 

 NO OUTPUT CONTROL FOR STRESS PERIOD  5   TIME STEP  5
 
 SOLVING FOR HEAD 

 NO OUTPUT CONTROL FOR STRESS PERIOD  5   TIME STEP  6
 
 SOLVING FOR HEAD 

 NO OUTPUT CONTROL FOR STRESS PERIOD  5   TIME STEP  7
 
 SOLVING FOR HEAD 

 NO OUTPUT CONTROL FOR STRESS PERIOD  5   TIME STEP  8
 
 SOLVING FOR HEAD 

 OUTPUT CONTROL FOR STRESS PERIOD  5   TIME STEP  9
    PRINT HEAD FOR ALL LAYERS
1
              HEAD IN LAYER  1 AT END OF TIME STEP  9 IN STRESS PERIOD  5
  -----------------------------------------------------------------------

          1      2      3      4      5      6      7      8      9     10
         11     12     13     14     15     16     17     18
 .........................................................................
   1   100.1  105.2  109.6  113.4  116.9  119.9  122.6  125.1  127.5  129.8
       131.9  133.8  135.5  137.0  138.1  139.0  139.6  139.9
   2   100.1  105.1  109.5  113.3  116.7  119.7  122.3  124.8  127.2  129.5
       131.6  133.6  135.3  136.8  138.0  138.9  139.5  139.8
   3   100.1  105.0  109.4  113.1  116.4  119.2  121.8  124.2  126.5  128.8
       130.9  133.0  134.8  136.4  137.7  138.7  139.3  139.6
   4   100.1  105.0  109.2  112.8  115.9  118.6  121.0  123.2  125.4  127.6
       129.9  132.0  134.1  135.8  137.3  138.3  139.1  139.4
   5   100.1  104.8  109.0  112.4  115.4  117.9  120.0  121.9  123.8  125.9
       128.3  130.8  133.1  135.1  136.7  138.0  138.8  139.2
   6   100.1  104.7  108.7  112.0  114.8  117.0  118.7  120.1  121.5  123.4
       126.1  129.1  131.9  134.3  136.2  137.6  138.5  138.9
   7   100.1  104.6  108.5  111.7  114.2  116.1  117.3  118.0  118.4  119.6
       123.1  127.1  130.7  133.5  135.7  137.2  138.2  138.7
   8   100.1  104.6  108.4  111.4  113.8  115.4  116.1  115.8  114.4  112.9
       119.2  125.0  129.5  132.9  135.3  137.0  138.1  138.6
   9   100.1  104.5  108.3  111.4  113.7  115.1  115.6  114.4  110.4   98.9
       115.2  123.7  129.1  132.7  135.2  137.0  138.1  138.6
  10   100.1  104.6  108.4  111.5  113.9  115.5  116.2  115.9  114.5  113.1
       119.3  125.2  129.7  133.1  135.5  137.2  138.3  138.8
  11   100.1  104.7  108.6  111.8  114.4  116.3  117.6  118.3  118.8  119.9
       123.5  127.5  131.0  133.8  136.0  137.6  138.6  139.0
  12   100.1  104.8  108.9  112.3  115.1  117.3  119.1  120.6  122.0  123.9
       126.7  129.6  132.4  134.8  136.7  138.1  139.0  139.4
  13   100.1  105.0  109.2  112.7  115.8  118.3  120.5  122.5  124.4  126.6
       129.0  131.5  133.8  135.8  137.4  138.6  139.4  139.8
  14   100.1  105.1  109.5  113.2  116.5  119.3  121.7  124.0  126.2  128.5
       130.8  132.9  134.9  136.7  138.1  139.2  139.9  140.2
  15   100.1  105.2  109.7  113.6  117.0  120.0  122.7  125.2  127.5  129.9
       132.0  134.1  135.9  137.4  138.7  139.7  140.3  140.6
  16   100.1  105.3  109.9  113.9  117.5  120.6  123.4  126.0  128.4  130.8
       132.9  134.9  136.6  138.0  139.2  140.1  140.7  141.0
  17   100.1  105.4  110.1  114.2  117.8  121.0  123.9  126.5  129.0  131.4
       133.5  135.4  137.0  138.4  139.5  140.3  140.9  141.2
  18   100.1  105.4  110.2  114.3  117.9  121.2  124.1  126.8  129.3  131.7
       133.8  135.6  137.2  138.6  139.7  140.5  141.0  141.3
1
              HEAD IN LAYER  2 AT END OF TIME STEP  9 IN STRESS PERIOD  5
  -----------------------------------------------------------------------

          1      2      3      4      5      6      7      8      9     10
         11     12     13     14     15     16     17     18
 .........................................................................
   1   100.6  105.3  109.8  113.5  116.9  119.8  122.6  125.1  127.4  129.7
       131.7  133.6  135.2  136.7  137.8  138.7  139.3  139.5
   2   100.6  105.3  109.7  113.4  116.7  119.6  122.3  124.7  127.1  129.3
       131.4  133.3  135.0  136.5  137.7  138.6  139.2  139.4
   3   100.6  105.2  109.5  113.2  116.4  119.2  121.8  124.1  126.4  128.6
       130.7  132.7  134.5  136.1  137.4  138.3  139.0  139.3
   4   100.6  105.1  109.3  112.8  115.9  118.6  121.0  123.1  125.3  127.5
       129.7  131.8  133.8  135.5  136.9  138.0  138.7  139.0
   5   100.6  105.0  109.1  112.5  115.4  117.8  119.9  121.8  123.7  125.7
       128.1  130.5  132.8  134.8  136.4  137.6  138.4  138.8
   6   100.6  104.8  108.8  112.0  114.8  116.9  118.6  120.0  121.4  123.2
       125.9  128.9  131.7  134.0  135.9  137.2  138.1  138.5
   7   100.6  104.7  108.6  111.7  114.2  116.0  117.2  117.8  118.2  119.3
       122.9  126.9  130.4  133.2  135.4  136.9  137.9  138.3
   8   100.5  104.7  108.5  111.4  113.8  115.3  116.0  115.5  113.9  111.8
       118.8  124.8  129.3  132.6  135.0  136.7  137.7  138.2
   9   100.5  104.7  108.4  111.4  113.6  115.0  115.4  114.0  109.1   92.8
       114.3  123.4  128.8  132.4  135.0  136.7  137.7  138.2
  10   100.6  104.7  108.5  111.5  113.9  115.4  116.1  115.7  114.0  112.0
       118.9  125.0  129.5  132.8  135.2  136.9  137.9  138.4
  11   100.6  104.8  108.7  111.8  114.4  116.2  117.5  118.1  118.5  119.6
       123.2  127.2  130.8  133.6  135.7  137.2  138.2  138.7
  12   100.6  104.9  109.0  112.3  115.1  117.3  119.0  120.5  121.9  123.7
       126.4  129.4  132.2  134.5  136.4  137.7  138.6  139.0
  13   100.6  105.1  109.3  112.8  115.8  118.3  120.5  122.4  124.3  126.4
       128.8  131.2  133.5  135.5  137.1  138.3  139.1  139.5
  14   100.6  105.2  109.6  113.2  116.5  119.2  121.7  123.9  126.1  128.3
       130.5  132.7  134.7  136.4  137.8  138.9  139.5  139.9
  15   100.6  105.4  109.9  113.7  117.1  120.0  122.7  125.1  127.4  129.7
       131.8  133.8  135.6  137.1  138.4  139.3  140.0  140.3
  16   100.6  105.5  110.1  114.0  117.5  120.6  123.4  125.9  128.3  130.6
       132.7  134.6  136.3  137.7  138.9  139.7  140.3  140.6
  17   100.7  105.6  110.3  114.2  117.8  121.0  123.8  126.5  128.9  131.2
       133.3  135.1  136.7  138.1  139.2  140.0  140.5  140.8
  18   100.7  105.6  110.3  114.3  118.0  121.1  124.1  126.7  129.2  131.5
       133.6  135.4  137.0  138.3  139.4  140.1  140.7  140.9
1
  VOLUMETRIC BUDGET FOR ENTIRE MODEL AT END OF TIME STEP  9 IN STRESS PERIOD  5
  -----------------------------------------------------------------------------

     CUMULATIVE VOLUMES      L**3       RATES FOR THIS TIME STEP      L**3/T
     ------------------                 ------------------------

           IN:                                      IN:
           ---                                      ---
             STORAGE =    10783060.0000               STORAGE =       5.1269E-02
       CONSTANT HEAD =           0.0000         CONSTANT HEAD =           0.0000
               WELLS =           0.0000                 WELLS =           0.0000
       RIVER LEAKAGE =           0.0000         RIVER LEAKAGE =           0.0000
     HEAD DEP BOUNDS =       17838.7832       HEAD DEP BOUNDS =       7.5785E-04
            RECHARGE =   106214400.0000              RECHARGE =           4.3461

            TOTAL IN =   117015296.0000              TOTAL IN =           4.3981

          OUT:                                     OUT:
          ----                                     ----
             STORAGE =           0.0000               STORAGE =           0.0000
       CONSTANT HEAD =           0.0000         CONSTANT HEAD =           0.0000
               WELLS =    52501036.0000                 WELLS =           2.1482
       RIVER LEAKAGE =    64512912.0000         RIVER LEAKAGE =           2.2498
     HEAD DEP BOUNDS =           0.0000       HEAD DEP BOUNDS =           0.0000
            RECHARGE =           0.0000              RECHARGE =           0.0000

           TOTAL OUT =   117013952.0000             TOTAL OUT =           4.3980

            IN - OUT =        1344.0000              IN - OUT =       7.8201E-05

 PERCENT DISCREPANCY =           0.00     PERCENT DISCREPANCY =           0.00






          TIME SUMMARY AT END OF TIME STEP  9 IN STRESS PERIOD  5
                    SECONDS     MINUTES      HOURS       DAYS        YEARS
                    -----------------------------------------------------------
   TIME STEP LENGTH 4.87217E+06  81203.      1353.4      56.391     0.15439    
 STRESS PERIOD TIME 2.35675E+07 3.92791E+05  6546.5      272.77     0.74681    
         TOTAL TIME 2.44391E+07 4.07318E+05  6788.6      282.86     0.77443    
1

 DATA AT HEAD LOCATIONS

       OBSERVATION      MEAS.       CALC.                            WEIGHTED
  OBS#    NAME          HEAD        HEAD      RESIDUAL  WEIGHT**.5   RESIDUAL

     1 1.0              101.804     100.175    1.63       0.999        1.63    
     2 1.1               -0.029       0.000  -0.289E-01    20.0      -0.578    
     3 1.12              -0.129      -0.083  -0.463E-01    20.0      -0.927    
     4 2.0              128.117     126.993    1.12       0.999        1.12    
     5 2.1               -0.041      -0.034  -0.729E-02    20.0      -0.146    
     6 2.2               -0.557      -0.544  -0.132E-01    20.0      -0.265    
     7 2.8              -11.531     -11.554   0.225E-01    20.0       0.451    
     8 2.12             -14.184     -14.192   0.814E-02    20.0       0.163    
     9 3.0              156.678     157.130  -0.452       0.999      -0.452    
    10 3.1               -4.381      -4.320  -0.614E-01    20.0       -1.23    
    11 3.12             -42.540     -42.594   0.539E-01    20.0        1.08    
    12 4.0              124.893     126.993   -2.10       0.999       -2.10    
    13 4.1               -0.067      -0.051  -0.156E-01    20.0      -0.312    
    14 4.12             -14.304     -14.251  -0.534E-01    20.0       -1.07    
    15 5.0              140.961     140.914   0.471E-01   0.999       0.470E-01
    16 5.1               -0.060      -0.099   0.387E-01    20.0       0.774    
    17 5.12             -21.676     -21.658  -0.184E-01    20.0      -0.368    
    18 6.0              126.537     127.204  -0.667       0.999      -0.666    
    19 6.1                0.005      -0.038   0.434E-01    20.0       0.867    
    20 6.12             -14.365     -14.367   0.203E-02    20.0       0.406E-01
    21 7.0              101.112     101.202  -0.904E-01   0.999      -0.903E-01
    22 7.1                0.048      -0.003   0.507E-01    20.0        1.01    
    23 7.12              -0.568      -0.650   0.816E-01    20.0        1.63    
    24 8.0              158.135     157.114    1.02       0.999        1.02    
    25 8.1               -5.533      -5.535   0.159E-02    20.0       0.317E-01
    26 8.12             -43.217     -43.107  -0.110        20.0       -2.21    
    27 9.0              176.374     176.750  -0.376       0.999      -0.375    
    28 9.1               -0.001      -0.100   0.993E-01    20.0        1.99    
    29 9.12             -38.242     -38.354   0.112        20.0        2.25    
    30 0.0              142.020     141.022   0.998       0.999       0.997    
    31 0.1               -0.013      -0.017   0.372E-02    20.0       0.745E-01
    32 0.12             -19.921     -19.876  -0.449E-01    20.0      -0.898    

 STATISTICS FOR HEAD RESIDUALS :
 MAXIMUM WEIGHTED RESIDUAL  :  2.25     OBS#     29
 MINIMUM WEIGHTED RESIDUAL  : -2.21     OBS#     26
 AVERAGE WEIGHTED RESIDUAL  : 0.109    
 # RESIDUALS >= 0. :     17
 # RESIDUALS < 0.  :     15
 NUMBER OF RUNS  :   16  IN   32 OBSERVATIONS

 SUM OF SQUARED WEIGHTED RESIDUALS (HEADS ONLY)   36.421    

 DATA FOR FLOWS REPRESENTED USING THE RIVER PACKAGE

       OBSERVATION      MEAS.      CALC.                          WEIGHTED
  OBS#    NAME          FLOW       FLOW     RESIDUAL  WEIGHT**.5  RESIDUAL

    33 SS             -4.40      -4.35     -0.534E-01   2.50     -0.133    
    34 TR3            -4.10      -4.06     -0.418E-01   2.63     -0.110    
    35 TR12           -2.20      -2.25      0.498E-01   4.76      0.237    

 STATISTICS FOR RIVER FLOW RESIDUALS :
 MAXIMUM WEIGHTED RESIDUAL  : 0.237     OBS#     35
 MINIMUM WEIGHTED RESIDUAL  :-0.133     OBS#     33
 AVERAGE WEIGHTED RESIDUAL  :-0.211E-02
 # RESIDUALS >= 0. :      1
 # RESIDUALS < 0.  :      2
 NUMBER OF RUNS  :    2  IN    3 OBSERVATIONS

 SUM OF SQUARED WEIGHTED RESIDUALS (RIVER FLOWS ONLY)  0.86138E-01

 SUM OF SQUARED WEIGHTED RESIDUALS (ALL DEPENDENT VARIABLES)   36.507    

 STATISTICS FOR ALL RESIDUALS :
 AVERAGE WEIGHTED RESIDUAL  : 0.998E-01
 # RESIDUALS >= 0. :     18
 # RESIDUALS < 0.  :     17
 NUMBER OF RUNS  :   17  IN   35 OBSERVATIONS

 INTERPRETING THE CALCULATED RUNS STATISTIC VALUE OF    -0.339    
 NOTE: THE FOLLOWING APPLIES ONLY IF 
        # RESIDUALS >= 0 . IS GREATER THAN 10 AND 
        # RESIDUALS < 0.   IS GREATER THAN 10
 THE NEGATIVE VALUE MAY INDICATE TOO FEW RUNS:
    IF THE VALUE IS LESS THAN -1.28, THERE IS LESS THAN A 10 PERCENT
       CHANCE THE VALUES ARE RANDOM,
    IF THE VALUE IS LESS THAN -1.645, THERE IS LESS THAN A 5 PERCENT
       CHANCE THE VALUES ARE RANDOM,
    IF THE VALUE IS LESS THAN -1.96, THERE IS LESS THAN A 2.5 PERCENT
       CHANCE THE VALUES ARE RANDOM.


 ORDERED DEPENDENT-VARIABLE WEIGHTED RESIDUALS
 NUMBER OF RESIDUALS INCLUDED:        35
     -2.21      -2.10      -1.23      -1.07     -0.927     -0.898     -0.666    
    -0.578     -0.452     -0.375     -0.368     -0.312     -0.265     -0.146    
    -0.133     -0.110     -0.903E-01  0.317E-01  0.406E-01  0.470E-01  0.745E-01
     0.163      0.237      0.451      0.774      0.867      0.997       1.01    
      1.02       1.08       1.12       1.63       1.63       1.99       2.25    

 CORRELATION BETWEEN ORDERED WEIGHTED RESIDUALS AND NORMAL ORDER STATISTICS
 FOR OBSERVATIONS =    0.978    

 --------------------------------------------------------------------------
 COMMENTS ON THE INTERPRETATION OF THE CORRELATION BETWEEN
 WEIGHTED RESIDUALS AND NORMAL ORDER STATISTICS:

 The critical value for correlation at the 5% significance level is 0.943

 IF the reported CORRELATION is GREATER than the 5% critical value, ACCEPT
 the hypothesis that the weighted residuals are INDEPENDENT AND NORMALLY
 DISTRIBUTED at the 5% significance level.  The probability that this   
 conclusion is wrong is less than 5%.

 IF the reported correlation IS LESS THAN the 5% critical value REJECT the,
 hypothesis that the weighted residuals are INDEPENDENT AND NORMALLY
 DISTRIBUTED at the 5% significance level.

 The analysis can also be done using the 10% significance level.
 The associated critical value is 0.952
 --------------------------------------------------------------------------

