                                  MODFLOW-2000
      U.S. GEOLOGICAL SURVEY MODULAR FINITE-DIFFERENCE GROUND-WATER FLOW MODEL
                             VERSION 1.12 09/08/2003


 This model run produced both GLOBAL and LIST files.  This is the LIST file.


 THIS FILE CONTAINS OUTPUT UNIQUE TO FINAL PARAMETER VALUES
   --REGRESSION HAS CONVERGED
 SENSITIVITIES ARE CALCULATED USING PREVIOUS SET OF PARAMETER VALUES

 CURRENT VALUES OF PARAMETERS LISTED IN THE SEN FILE:

 PARAMETER   PARAMETER   PARAMETER    FOOT-
    NAME        TYPE       VALUE      NOTE
 ----------  ---------  ------------  -----
 HK1            HK       3.00354E-04    *
 HK2            HK       2.00000E-07     
 HK3            HK       4.02176E-05    *
 HK4            HK       3.98817E-05    *
 VKA1           VK       3.00000E-04     
 VKA2           VK       2.00000E-07     
 VKA3           VK       4.00000E-05     
 VKA4           VK       4.00000E-05     
 SS1            SS       1.00182E-03    *
 SS2            SS       1.00000E-06     
 SS3            SS       9.98674E-04    *
 SS4            SS       9.97229E-04    *
 SY1            SY       0.10016        *
 SY2            SY       1.00000E-02     
 SY3            SY       0.10000         
 SY4            SY       0.10000         
 ------------------------------------------
 * INDICATES VALUE ADJUSTABLE BY PARAMETER-
   ESTIMATION PROCESS


 REWOUND tc1huf.lst
 FILE TYPE:LIST   UNIT    4

 REWOUND ../data/tc1huf.obs
 FILE TYPE:OBS   UNIT   40

 REWOUND ../data/tc1huf.hob
 FILE TYPE:HOB   UNIT   41

 REWOUND ../data/tc1huf.ogb
 FILE TYPE:GBOB   UNIT   42

 REWOUND ../data/tc1huf.bas
 FILE TYPE:BAS6   UNIT   55

 REWOUND ../data/tc1huf.wel
 FILE TYPE:WEL   UNIT    8

 REWOUND ../data/tc1huf.dis
 FILE TYPE:DIS   UNIT   10

 REWOUND ../data/tc1huf.oc
 FILE TYPE:OC   UNIT   11

 REWOUND ../data/tc1huf.ghb
 FILE TYPE:GHB   UNIT   12

 REWOUND ../data/tc1huf.riv
 FILE TYPE:RIV   UNIT   13

 REWOUND ../data/tc1huf.sh
 FILE TYPE:DATA   UNIT   14

 REWOUND ../data/tc1huf.rch
 FILE TYPE:RCH   UNIT   31

 REWOUND ../data/tc1huf.mlt
 FILE TYPE:MULT   UNIT   32

 REWOUND ../data/tc1huf.zon
 FILE TYPE:ZONE   UNIT   33
 
 # MODULAR MODEL - TWO-LAYER EXAMPLE PROBLEM, TRANSIENT, TEST CASE TC1TR         
 #                                                                               
 THE FREE FORMAT OPTION HAS BEEN SELECTED
    3 LAYERS        18 ROWS        18 COLUMNS
    4 STRESS PERIOD(S) IN SIMULATION

 BAS6 -- BASIC PACKAGE, VERSION 6, 1/11/2000 INPUT READ FROM UNIT   55
         15 ELEMENTS IN IR ARRAY ARE USED BY BAS

 WEL6 -- WELL PACKAGE, VERSION 6, 1/11/2000 INPUT READ FROM UNIT    8
 No named parameters
 MAXIMUM OF      5 ACTIVE WELLS AT ONE TIME
         20 ELEMENTS IN RX ARRAY ARE USED BY WEL

 RIV6 -- RIVER PACKAGE, VERSION 6, 1/11/2000 INPUT READ FROM UNIT   13
 No named parameters
 MAXIMUM OF     18 ACTIVE RIVER REACHES AT ONE TIME
        108 ELEMENTS IN RX ARRAY ARE USED BY RIV

 GHB6 -- GHB PACKAGE, VERSION 6, 1/11/2000 INPUT READ FROM UNIT   12
 No named parameters
 MAXIMUM OF     36 ACTIVE GHB CELLS AT ONE TIME
        180 ELEMENTS IN RX ARRAY ARE USED BY GHB

 RCH6 -- RECHARGE PACKAGE, VERSION 6, 1/11/2000 INPUT READ FROM UNIT   31
     2 Named Parameters     
 OPTION 1 -- RECHARGE TO TOP LAYER
        324 ELEMENTS IN RX ARRAY ARE USED BY RCH
        324 ELEMENTS IN IR ARRAY ARE USED BY RCH

        632  ELEMENTS OF RX ARRAY USED OUT OF        632
        339  ELEMENTS OF IR ARRAY USED OUT OF        339
1
 # MODULAR MODEL - TWO-LAYER EXAMPLE PROBLEM, TRANSIENT, TEST CASE TC1TR         
 #                                                                               

           BOUNDARY ARRAY =              1 FOR LAYER   1

           BOUNDARY ARRAY =              1 FOR LAYER   2

           BOUNDARY ARRAY =              1 FOR LAYER   3

 AQUIFER HEAD WILL BE SET TO  0.0000     AT ALL NO-FLOW NODES (IBOUND=0).



                       INITIAL HEAD FOR LAYER   1
 READING ON UNIT   14 WITH FORMAT: (10F13.0)           



                       INITIAL HEAD FOR LAYER   2
 READING ON UNIT   14 WITH FORMAT: (10F13.0)           



                       INITIAL HEAD FOR LAYER   3
 READING ON UNIT   14 WITH FORMAT: (10F13.0)           

 OUTPUT CONTROL IS SPECIFIED EVERY TIME STEP
 HEAD PRINT FORMAT CODE IS  20    DRAWDOWN PRINT FORMAT CODE IS   0
 HEADS WILL BE SAVED ON UNIT   19    DRAWDOWNS WILL BE SAVED ON UNIT    0


   HYD. COND. ALONG ROWS FOR UNIT HGU3      


              HYD. COND. ALONG ROWS

            1           2           3           4           5           6
            7           8           9          10          11          12
           13          14          15          16          17          18
 ........................................................................
   1   4.0218E-05  4.0218E-05  8.0435E-05  8.0435E-05  1.2065E-04  1.2065E-04
       1.6087E-04  1.6087E-04  2.0109E-04  2.0109E-04  2.4131E-04  2.4131E-04
       2.8152E-04  2.8152E-04  3.2174E-04  3.2174E-04  3.6196E-04  3.6196E-04
   2   4.0218E-05  4.0218E-05  8.0435E-05  8.0435E-05  1.2065E-04  1.2065E-04
       1.6087E-04  1.6087E-04  2.0109E-04  2.0109E-04  2.4131E-04  2.4131E-04
       2.8152E-04  2.8152E-04  3.2174E-04  3.2174E-04  3.6196E-04  3.6196E-04
   3   4.0218E-05  4.0218E-05  8.0435E-05  8.0435E-05  1.2065E-04  1.2065E-04
       1.6087E-04  1.6087E-04  2.0109E-04  2.0109E-04  2.4131E-04  2.4131E-04
       2.8152E-04  2.8152E-04  3.2174E-04  3.2174E-04  3.6196E-04  3.6196E-04
   4   4.0218E-05  4.0218E-05  8.0435E-05  8.0435E-05  1.2065E-04  1.2065E-04
       1.6087E-04  1.6087E-04  2.0109E-04  2.0109E-04  2.4131E-04  2.4131E-04
       2.8152E-04  2.8152E-04  3.2174E-04  3.2174E-04  3.6196E-04  3.6196E-04
   5   4.0218E-05  4.0218E-05  8.0435E-05  8.0435E-05  1.2065E-04  1.2065E-04
       1.6087E-04  1.6087E-04  2.0109E-04  2.0109E-04  2.4131E-04  2.4131E-04
       2.8152E-04  2.8152E-04  3.2174E-04  3.2174E-04  3.6196E-04  3.6196E-04
   6   4.0218E-05  4.0218E-05  8.0435E-05  8.0435E-05  1.2065E-04  1.2065E-04
       1.6087E-04  1.6087E-04  2.0109E-04  2.0109E-04  2.4131E-04  2.4131E-04
       2.8152E-04  2.8152E-04  3.2174E-04  3.2174E-04  3.6196E-04  3.6196E-04
   7   4.0218E-05  4.0218E-05  8.0435E-05  8.0435E-05  1.2065E-04  1.2065E-04
       1.6087E-04  1.6087E-04  2.0109E-04  2.0109E-04  2.4131E-04  2.4131E-04
       2.8152E-04  2.8152E-04  3.2174E-04  3.2174E-04  3.6196E-04  3.6196E-04
   8   4.0218E-05  4.0218E-05  8.0435E-05  8.0435E-05  1.2065E-04  1.2065E-04
       1.6087E-04  1.6087E-04  2.0109E-04  2.0109E-04  2.4131E-04  2.4131E-04
       2.8152E-04  2.8152E-04  3.2174E-04  3.2174E-04  3.6196E-04  3.6196E-04
   9   4.0218E-05  4.0218E-05  8.0435E-05  8.0435E-05  1.2065E-04  1.2065E-04
       1.6087E-04  1.6087E-04  2.0109E-04  2.0109E-04  2.4131E-04  2.4131E-04
       2.8152E-04  2.8152E-04  3.2174E-04  3.2174E-04  3.6196E-04  3.6196E-04
  10   4.0218E-05  4.0218E-05  8.0435E-05  8.0435E-05  1.2065E-04  1.2065E-04
       1.6087E-04  1.6087E-04  2.0109E-04  2.0109E-04  2.4131E-04  2.4131E-04
       2.8152E-04  2.8152E-04  3.2174E-04  3.2174E-04  3.6196E-04  3.6196E-04
  11   4.0218E-05  4.0218E-05  8.0435E-05  8.0435E-05  1.2065E-04  1.2065E-04
       1.6087E-04  1.6087E-04  2.0109E-04  2.0109E-04  2.4131E-04  2.4131E-04
       2.8152E-04  2.8152E-04  3.2174E-04  3.2174E-04  3.6196E-04  3.6196E-04
  12   4.0218E-05  4.0218E-05  8.0435E-05  8.0435E-05  1.2065E-04  1.2065E-04
       1.6087E-04  1.6087E-04  2.0109E-04  2.0109E-04  2.4131E-04  2.4131E-04
       2.8152E-04  2.8152E-04  3.2174E-04  3.2174E-04  3.6196E-04  3.6196E-04
  13   4.0218E-05  4.0218E-05  8.0435E-05  8.0435E-05  1.2065E-04  1.2065E-04
       1.6087E-04  1.6087E-04  2.0109E-04  2.0109E-04  2.4131E-04  2.4131E-04
       2.8152E-04  2.8152E-04  3.2174E-04  3.2174E-04  3.6196E-04  3.6196E-04
  14   4.0218E-05  4.0218E-05  8.0435E-05  8.0435E-05  1.2065E-04  1.2065E-04
       1.6087E-04  1.6087E-04  2.0109E-04  2.0109E-04  2.4131E-04  2.4131E-04
       2.8152E-04  2.8152E-04  3.2174E-04  3.2174E-04  3.6196E-04  3.6196E-04
  15   4.0218E-05  4.0218E-05  8.0435E-05  8.0435E-05  1.2065E-04  1.2065E-04
       1.6087E-04  1.6087E-04  2.0109E-04  2.0109E-04  2.4131E-04  2.4131E-04
       2.8152E-04  2.8152E-04  3.2174E-04  3.2174E-04  3.6196E-04  3.6196E-04
  16   4.0218E-05  4.0218E-05  8.0435E-05  8.0435E-05  1.2065E-04  1.2065E-04
       1.6087E-04  1.6087E-04  2.0109E-04  2.0109E-04  2.4131E-04  2.4131E-04
       2.8152E-04  2.8152E-04  3.2174E-04  3.2174E-04  3.6196E-04  3.6196E-04
  17   4.0218E-05  4.0218E-05  8.0435E-05  8.0435E-05  1.2065E-04  1.2065E-04
       1.6087E-04  1.6087E-04  2.0109E-04  2.0109E-04  2.4131E-04  2.4131E-04
       2.8152E-04  2.8152E-04  3.2174E-04  3.2174E-04  3.6196E-04  3.6196E-04
  18   4.0218E-05  4.0218E-05  8.0435E-05  8.0435E-05  1.2065E-04  1.2065E-04
       1.6087E-04  1.6087E-04  2.0109E-04  2.0109E-04  2.4131E-04  2.4131E-04
       2.8152E-04  2.8152E-04  3.2174E-04  3.2174E-04  3.6196E-04  3.6196E-04


  HORIZ. ANI. (COL./ROW) FOR UNIT HGU3      

   HORIZ. ANI. (COL./ROW) =   1.00000    


     VERTICAL HYD. COND. FOR UNIT HGU3      


                VERTICAL HYD. COND.

            1           2           3           4           5           6
            7           8           9          10          11          12
           13          14          15          16          17          18
 ........................................................................
   1   4.0000E-05  4.0000E-05  8.0000E-05  8.0000E-05  1.2000E-04  1.2000E-04
       1.6000E-04  1.6000E-04  2.0000E-04  2.0000E-04  2.4000E-04  2.4000E-04
       2.8000E-04  2.8000E-04  3.2000E-04  3.2000E-04  3.6000E-04  3.6000E-04
   2   4.0000E-05  4.0000E-05  8.0000E-05  8.0000E-05  1.2000E-04  1.2000E-04
       1.6000E-04  1.6000E-04  2.0000E-04  2.0000E-04  2.4000E-04  2.4000E-04
       2.8000E-04  2.8000E-04  3.2000E-04  3.2000E-04  3.6000E-04  3.6000E-04
   3   4.0000E-05  4.0000E-05  8.0000E-05  8.0000E-05  1.2000E-04  1.2000E-04
       1.6000E-04  1.6000E-04  2.0000E-04  2.0000E-04  2.4000E-04  2.4000E-04
       2.8000E-04  2.8000E-04  3.2000E-04  3.2000E-04  3.6000E-04  3.6000E-04
   4   4.0000E-05  4.0000E-05  8.0000E-05  8.0000E-05  1.2000E-04  1.2000E-04
       1.6000E-04  1.6000E-04  2.0000E-04  2.0000E-04  2.4000E-04  2.4000E-04
       2.8000E-04  2.8000E-04  3.2000E-04  3.2000E-04  3.6000E-04  3.6000E-04
   5   4.0000E-05  4.0000E-05  8.0000E-05  8.0000E-05  1.2000E-04  1.2000E-04
       1.6000E-04  1.6000E-04  2.0000E-04  2.0000E-04  2.4000E-04  2.4000E-04
       2.8000E-04  2.8000E-04  3.2000E-04  3.2000E-04  3.6000E-04  3.6000E-04
   6   4.0000E-05  4.0000E-05  8.0000E-05  8.0000E-05  1.2000E-04  1.2000E-04
       1.6000E-04  1.6000E-04  2.0000E-04  2.0000E-04  2.4000E-04  2.4000E-04
       2.8000E-04  2.8000E-04  3.2000E-04  3.2000E-04  3.6000E-04  3.6000E-04
   7   4.0000E-05  4.0000E-05  8.0000E-05  8.0000E-05  1.2000E-04  1.2000E-04
       1.6000E-04  1.6000E-04  2.0000E-04  2.0000E-04  2.4000E-04  2.4000E-04
       2.8000E-04  2.8000E-04  3.2000E-04  3.2000E-04  3.6000E-04  3.6000E-04
   8   4.0000E-05  4.0000E-05  8.0000E-05  8.0000E-05  1.2000E-04  1.2000E-04
       1.6000E-04  1.6000E-04  2.0000E-04  2.0000E-04  2.4000E-04  2.4000E-04
       2.8000E-04  2.8000E-04  3.2000E-04  3.2000E-04  3.6000E-04  3.6000E-04
   9   4.0000E-05  4.0000E-05  8.0000E-05  8.0000E-05  1.2000E-04  1.2000E-04
       1.6000E-04  1.6000E-04  2.0000E-04  2.0000E-04  2.4000E-04  2.4000E-04
       2.8000E-04  2.8000E-04  3.2000E-04  3.2000E-04  3.6000E-04  3.6000E-04
  10   4.0000E-05  4.0000E-05  8.0000E-05  8.0000E-05  1.2000E-04  1.2000E-04
       1.6000E-04  1.6000E-04  2.0000E-04  2.0000E-04  2.4000E-04  2.4000E-04
       2.8000E-04  2.8000E-04  3.2000E-04  3.2000E-04  3.6000E-04  3.6000E-04
  11   4.0000E-05  4.0000E-05  8.0000E-05  8.0000E-05  1.2000E-04  1.2000E-04
       1.6000E-04  1.6000E-04  2.0000E-04  2.0000E-04  2.4000E-04  2.4000E-04
       2.8000E-04  2.8000E-04  3.2000E-04  3.2000E-04  3.6000E-04  3.6000E-04
  12   4.0000E-05  4.0000E-05  8.0000E-05  8.0000E-05  1.2000E-04  1.2000E-04
       1.6000E-04  1.6000E-04  2.0000E-04  2.0000E-04  2.4000E-04  2.4000E-04
       2.8000E-04  2.8000E-04  3.2000E-04  3.2000E-04  3.6000E-04  3.6000E-04
  13   4.0000E-05  4.0000E-05  8.0000E-05  8.0000E-05  1.2000E-04  1.2000E-04
       1.6000E-04  1.6000E-04  2.0000E-04  2.0000E-04  2.4000E-04  2.4000E-04
       2.8000E-04  2.8000E-04  3.2000E-04  3.2000E-04  3.6000E-04  3.6000E-04
  14   4.0000E-05  4.0000E-05  8.0000E-05  8.0000E-05  1.2000E-04  1.2000E-04
       1.6000E-04  1.6000E-04  2.0000E-04  2.0000E-04  2.4000E-04  2.4000E-04
       2.8000E-04  2.8000E-04  3.2000E-04  3.2000E-04  3.6000E-04  3.6000E-04
  15   4.0000E-05  4.0000E-05  8.0000E-05  8.0000E-05  1.2000E-04  1.2000E-04
       1.6000E-04  1.6000E-04  2.0000E-04  2.0000E-04  2.4000E-04  2.4000E-04
       2.8000E-04  2.8000E-04  3.2000E-04  3.2000E-04  3.6000E-04  3.6000E-04
  16   4.0000E-05  4.0000E-05  8.0000E-05  8.0000E-05  1.2000E-04  1.2000E-04
       1.6000E-04  1.6000E-04  2.0000E-04  2.0000E-04  2.4000E-04  2.4000E-04
       2.8000E-04  2.8000E-04  3.2000E-04  3.2000E-04  3.6000E-04  3.6000E-04
  17   4.0000E-05  4.0000E-05  8.0000E-05  8.0000E-05  1.2000E-04  1.2000E-04
       1.6000E-04  1.6000E-04  2.0000E-04  2.0000E-04  2.4000E-04  2.4000E-04
       2.8000E-04  2.8000E-04  3.2000E-04  3.2000E-04  3.6000E-04  3.6000E-04
  18   4.0000E-05  4.0000E-05  8.0000E-05  8.0000E-05  1.2000E-04  1.2000E-04
       1.6000E-04  1.6000E-04  2.0000E-04  2.0000E-04  2.4000E-04  2.4000E-04
       2.8000E-04  2.8000E-04  3.2000E-04  3.2000E-04  3.6000E-04  3.6000E-04


        SPECIFIC STORAGE FOR UNIT HGU3      

         SPECIFIC STORAGE =  9.986741E-04


          SPECIFIC YIELD FOR UNIT HGU3      

           SPECIFIC YIELD =  0.100000    
1
                            STRESS PERIOD NO.    1, LENGTH =   87162.00    
                            -----------------------------------------------

                              NUMBER OF TIME STEPS =     1

                               MULTIPLIER FOR DELT =     1.200

                            INITIAL TIME STEP SIZE =   87162.00    

 WELL NO.  LAYER   ROW   COL   STRESS RATE         
 --------------------------------------------------
      1      1      9     10      -1.000    
      2      3      9      9      -1.000    
      3      3      9     10      -1.000    
      4      3     10      9      -1.000    
      5      3     10     10      -1.000    

      5 WELLS

 REACH NO.  LAYER   ROW   COL     STAGE      CONDUCTANCE     BOTTOM EL.         
 -------------------------------------------------------------------------------
      1      1      1      1       100.0           1.000           90.00    
      2      1      2      1       100.0           1.000           90.00    
      3      1      3      1       100.0           1.000           90.00    
      4      1      4      1       100.0           1.000           90.00    
      5      1      5      1       100.0           1.000           90.00    
      6      1      6      1       100.0           1.000           90.00    
      7      1      7      1       100.0           1.000           90.00    
      8      1      8      1       100.0           1.000           90.00    
      9      1      9      1       100.0           1.000           90.00    
     10      1     10      1       100.0           1.000           90.00    
     11      1     11      1       100.0           1.000           90.00    
     12      1     12      1       100.0           1.000           90.00    
     13      1     13      1       100.0           1.000           90.00    
     14      1     14      1       100.0           1.000           90.00    
     15      1     15      1       100.0           1.000           90.00    
     16      1     16      1       100.0           1.000           90.00    
     17      1     17      1       100.0           1.000           90.00    
     18      1     18      1       100.0           1.000           90.00    

     18 RIVER REACHES

 BOUND. NO. LAYER   ROW   COL     STAGE      CONDUCTANCE         
 ----------------------------------------------------------------
      1      1      1     18       350.0          0.1000E-01
      2      1      2     18       350.0          0.1000E-01
      3      1      3     18       350.0          0.1000E-01
      4      1      4     18       350.0          0.1000E-01
      5      1      5     18       350.0          0.1000E-01
      6      1      6     18       350.0          0.1000E-01
      7      1      7     18       350.0          0.1000E-01
      8      1      8     18       350.0          0.1000E-01
      9      1      9     18       350.0          0.1000E-01
     10      1     10     18       350.0          0.1000E-01
     11      1     11     18       350.0          0.1000E-01
     12      1     12     18       350.0          0.1000E-01
     13      1     13     18       350.0          0.1000E-01
     14      1     14     18       350.0          0.1000E-01
     15      1     15     18       350.0          0.1000E-01
     16      1     16     18       350.0          0.1000E-01
     17      1     17     18       350.0          0.1000E-01
     18      1     18     18       350.0          0.1000E-01
     19      3      1     18       350.0          0.1000E-01
     20      3      2     18       350.0          0.1000E-01
     21      3      3     18       350.0          0.1000E-01
     22      3      4     18       350.0          0.1000E-01
     23      3      5     18       350.0          0.1000E-01
     24      3      6     18       350.0          0.1000E-01
     25      3      7     18       350.0          0.1000E-01
     26      3      8     18       350.0          0.1000E-01
     27      3      9     18       350.0          0.1000E-01
     28      3     10     18       350.0          0.1000E-01
     29      3     11     18       350.0          0.1000E-01
     30      3     12     18       350.0          0.1000E-01
     31      3     13     18       350.0          0.1000E-01
     32      3     14     18       350.0          0.1000E-01
     33      3     15     18       350.0          0.1000E-01
     34      3     16     18       350.0          0.1000E-01
     35      3     17     18       350.0          0.1000E-01
     36      3     18     18       350.0          0.1000E-01

     36 GHB CELLS



 RECH array defined by the following parameters:
 Parameter:  RCH1
 Parameter:  RCH2


                           RECHARGE
 
 SOLVING FOR HEAD 

 HEAD/DRAWDOWN PRINTOUT FLAG = 1     TOTAL BUDGET PRINTOUT FLAG = 1
 CELL-BY-CELL FLOW TERM FLAG = 0

 OUTPUT FLAGS FOR ALL LAYERS ARE THE SAME:
   HEAD    DRAWDOWN  HEAD  DRAWDOWN
 PRINTOUT  PRINTOUT  SAVE    SAVE
 ----------------------------------
     1         0       0       0
1
              HEAD IN LAYER   1 AT END OF TIME STEP   1 IN STRESS PERIOD    1
  ---------------------------------------------------------------------------

            1           2           3           4           5           6
            7           8           9          10          11          12
           13          14          15          16          17          18
 ........................................................................
   1    100.1       110.0       118.9       127.0       134.3       140.9    
        146.9       152.3       157.1       161.5       165.3       168.5    
        171.1       173.3       174.9       176.2       177.0       180.2    
   2    100.1       110.0       118.9       127.0       134.3       140.9    
        146.9       152.3       157.1       161.5       165.3       168.5    
        171.1       173.3       174.9       176.2       177.0       180.2    
   3    100.1       110.0       118.9       127.0       134.3       140.9    
        146.9       152.3       157.1       161.5       165.3       168.5    
        171.1       173.3       174.9       176.2       177.0       180.2    
   4    100.1       110.0       118.9       127.0       134.3       140.9    
        146.9       152.3       157.1       161.5       165.3       168.5    
        171.1       173.3       174.9       176.2       177.0       180.2    
   5    100.1       110.0       118.9       127.0       134.3       140.9    
        146.9       152.3       157.1       161.5       165.3       168.5    
        171.1       173.3       174.9       176.2       177.0       180.2    
   6    100.1       110.0       118.9       127.0       134.3       140.9    
        146.9       152.3       157.1       161.5       165.3       168.5    
        171.1       173.3       174.9       176.2       177.0       180.2    
   7    100.1       110.0       118.9       127.0       134.3       140.9    
        146.9       152.3       157.1       161.5       165.3       168.5    
        171.1       173.3       174.9       176.2       177.0       180.2    
   8    100.1       110.0       118.9       127.0       134.3       140.9    
        146.9       152.3       157.1       161.5       165.3       168.5    
        171.1       173.3       174.9       176.2       177.0       180.2    
   9    100.1       110.0       118.9       127.0       134.3       140.9    
        146.9       152.3       157.1       160.0       165.3       168.5    
        171.1       173.3       174.9       176.2       177.0       180.2    
  10    100.1       110.0       118.9       127.0       134.3       140.9    
        146.9       152.3       157.1       161.5       165.3       168.5    
        171.1       173.3       174.9       176.2       177.0       180.2    
  11    100.1       110.0       118.9       127.0       134.3       140.9    
        146.9       152.3       157.1       161.5       165.3       168.5    
        171.1       173.3       174.9       176.2       177.0       180.2    
  12    100.1       110.0       118.9       127.0       134.3       140.9    
        146.9       152.3       157.1       161.5       165.3       168.5    
        171.1       173.3       174.9       176.2       177.0       180.2    
  13    100.1       110.0       118.9       127.0       134.3       140.9    
        146.9       152.3       157.1       161.5       165.3       168.5    
        171.1       173.3       174.9       176.2       177.0       180.2    
  14    100.1       110.0       118.9       127.0       134.3       140.9    
        146.9       152.3       157.1       161.5       165.3       168.5    
        171.1       173.3       174.9       176.2       177.0       180.2    
  15    100.1       110.0       118.9       127.0       134.3       140.9    
        146.9       152.3       157.1       161.5       165.3       168.5    
        171.1       173.3       174.9       176.2       177.0       180.2    
  16    100.1       110.0       118.9       127.0       134.3       140.9    
        146.9       152.3       157.1       161.5       165.3       168.5    
        171.1       173.3       174.9       176.2       177.0       180.2    
  17    100.1       110.0       118.9       127.0       134.3       140.9    
        146.9       152.3       157.1       161.5       165.3       168.5    
        171.1       173.3       174.9       176.2       177.0       180.2    
  18    100.1       110.0       118.9       127.0       134.3       140.9    
        146.9       152.3       157.1       161.5       165.3       168.5    
        171.1       173.3       174.9       176.2       177.0       180.2    
1
              HEAD IN LAYER   2 AT END OF TIME STEP   1 IN STRESS PERIOD    1
  ---------------------------------------------------------------------------

            1           2           3           4           5           6
            7           8           9          10          11          12
           13          14          15          16          17          18
 ........................................................................
   1    100.2       110.0       118.9       126.9       134.3       140.9    
        146.9       152.3       157.1       161.5       165.3       168.5    
        171.1       173.3       174.9       176.1       177.0       180.2    
   2    100.2       110.0       118.9       126.9       134.3       140.9    
        146.9       152.3       157.1       161.5       165.3       168.5    
        171.1       173.3       174.9       176.1       177.0       180.2    
   3    100.2       110.0       118.9       126.9       134.3       140.9    
        146.9       152.3       157.1       161.5       165.3       168.5    
        171.1       173.3       174.9       176.1       177.0       180.2    
   4    100.2       110.0       118.9       126.9       134.3       140.9    
        146.9       152.3       157.1       161.5       165.3       168.5    
        171.1       173.3       174.9       176.1       177.0       180.2    
   5    100.2       110.0       118.9       126.9       134.3       140.9    
        146.9       152.3       157.1       161.5       165.3       168.5    
        171.1       173.3       174.9       176.1       177.0       180.2    
   6    100.2       110.0       118.9       126.9       134.3       140.9    
        146.9       152.3       157.1       161.5       165.3       168.5    
        171.1       173.3       174.9       176.1       177.0       180.2    
   7    100.2       110.0       118.9       126.9       134.3       140.9    
        146.9       152.3       157.1       161.5       165.3       168.5    
        171.1       173.3       174.9       176.1       177.0       180.2    
   8    100.2       110.0       118.9       126.9       134.3       140.9    
        146.9       152.3       157.1       161.5       165.3       168.5    
        171.1       173.3       174.9       176.1       177.0       180.2    
   9    100.2       110.0       118.9       126.9       134.3       140.9    
        146.9       152.3       156.3       159.9       165.3       168.5    
        171.1       173.3       174.9       176.1       177.0       180.2    
  10    100.2       110.0       118.9       126.9       134.3       140.9    
        146.9       152.3       156.3       160.7       165.3       168.5    
        171.1       173.3       174.9       176.1       177.0       180.2    
  11    100.2       110.0       118.9       126.9       134.3       140.9    
        146.9       152.3       157.1       161.5       165.3       168.5    
        171.1       173.3       174.9       176.1       177.0       180.2    
  12    100.2       110.0       118.9       126.9       134.3       140.9    
        146.9       152.3       157.1       161.5       165.3       168.5    
        171.1       173.3       174.9       176.1       177.0       180.2    
  13    100.2       110.0       118.9       126.9       134.3       140.9    
        146.9       152.3       157.1       161.5       165.3       168.5    
        171.1       173.3       174.9       176.1       177.0       180.2    
  14    100.2       110.0       118.9       126.9       134.3       140.9    
        146.9       152.3       157.1       161.5       165.3       168.5    
        171.1       173.3       174.9       176.1       177.0       180.2    
  15    100.2       110.0       118.9       126.9       134.3       140.9    
        146.9       152.3       157.1       161.5       165.3       168.5    
        171.1       173.3       174.9       176.1       177.0       180.2    
  16    100.2       110.0       118.9       126.9       134.3       140.9    
        146.9       152.3       157.1       161.5       165.3       168.5    
        171.1       173.3       174.9       176.1       177.0       180.2    
  17    100.2       110.0       118.9       126.9       134.3       140.9    
        146.9       152.3       157.1       161.5       165.3       168.5    
        171.1       173.3       174.9       176.1       177.0       180.2    
  18    100.2       110.0       118.9       126.9       134.3       140.9    
        146.9       152.3       157.1       161.5       165.3       168.5    
        171.1       173.3       174.9       176.1       177.0       180.2    
1
              HEAD IN LAYER   3 AT END OF TIME STEP   1 IN STRESS PERIOD    1
  ---------------------------------------------------------------------------

            1           2           3           4           5           6
            7           8           9          10          11          12
           13          14          15          16          17          18
 ........................................................................
   1    100.3       110.0       118.9       126.9       134.3       140.9    
        146.9       152.3       157.1       161.5       165.3       168.5    
        171.1       173.3       174.9       176.1       177.0       180.2    
   2    100.3       110.0       118.9       126.9       134.3       140.9    
        146.9       152.3       157.1       161.5       165.3       168.5    
        171.1       173.3       174.9       176.1       177.0       180.2    
   3    100.3       110.0       118.9       126.9       134.3       140.9    
        146.9       152.3       157.1       161.5       165.3       168.5    
        171.1       173.3       174.9       176.1       177.0       180.2    
   4    100.3       110.0       118.9       126.9       134.3       140.9    
        146.9       152.3       157.1       161.5       165.3       168.5    
        171.1       173.3       174.9       176.1       177.0       180.2    
   5    100.3       110.0       118.9       126.9       134.3       140.9    
        146.9       152.3       157.1       161.5       165.3       168.5    
        171.1       173.3       174.9       176.1       177.0       180.2    
   6    100.3       110.0       118.9       126.9       134.3       140.9    
        146.9       152.3       157.1       161.5       165.3       168.5    
        171.1       173.3       174.9       176.1       177.0       180.2    
   7    100.3       110.0       118.9       126.9       134.3       140.9    
        146.9       152.3       157.1       161.5       165.3       168.5    
        171.1       173.3       174.9       176.1       177.0       180.2    
   8    100.3       110.0       118.9       126.9       134.3       140.9    
        146.9       152.3       157.1       161.5       165.3       168.5    
        171.1       173.3       174.9       176.1       177.0       180.2    
   9    100.3       110.0       118.9       126.9       134.3       140.9    
        146.9       152.2       155.5       159.9       165.3       168.5    
        171.1       173.3       174.9       176.1       177.0       180.2    
  10    100.3       110.0       118.9       126.9       134.3       140.9    
        146.9       152.2       155.5       159.9       165.3       168.5    
        171.1       173.3       174.9       176.1       177.0       180.2    
  11    100.3       110.0       118.9       126.9       134.3       140.9    
        146.9       152.3       157.1       161.5       165.3       168.5    
        171.1       173.3       174.9       176.1       177.0       180.2    
  12    100.3       110.0       118.9       126.9       134.3       140.9    
        146.9       152.3       157.1       161.5       165.3       168.5    
        171.1       173.3       174.9       176.1       177.0       180.2    
  13    100.3       110.0       118.9       126.9       134.3       140.9    
        146.9       152.3       157.1       161.5       165.3       168.5    
        171.1       173.3       174.9       176.1       177.0       180.2    
  14    100.3       110.0       118.9       126.9       134.3       140.9    
        146.9       152.3       157.1       161.5       165.3       168.5    
        171.1       173.3       174.9       176.1       177.0       180.2    
  15    100.3       110.0       118.9       126.9       134.3       140.9    
        146.9       152.3       157.1       161.5       165.3       168.5    
        171.1       173.3       174.9       176.1       177.0       180.2    
  16    100.3       110.0       118.9       126.9       134.3       140.9    
        146.9       152.3       157.1       161.5       165.3       168.5    
        171.1       173.3       174.9       176.1       177.0       180.2    
  17    100.3       110.0       118.9       126.9       134.3       140.9    
        146.9       152.3       157.1       161.5       165.3       168.5    
        171.1       173.3       174.9       176.1       177.0       180.2    
  18    100.3       110.0       118.9       126.9       134.3       140.9    
        146.9       152.3       157.1       161.5       165.3       168.5    
        171.1       173.3       174.9       176.1       177.0       180.2    
1
  VOLUMETRIC BUDGET FOR ENTIRE MODEL AT END OF TIME STEP  1 IN STRESS PERIOD   1
  ------------------------------------------------------------------------------

     CUMULATIVE VOLUMES      L**3       RATES FOR THIS TIME STEP      L**3/T
     ------------------                 ------------------------

           IN:                                      IN:
           ---                                      ---
             STORAGE =      651816.3130               STORAGE =           7.4782
       CONSTANT HEAD =           0.0000         CONSTANT HEAD =           0.0000
               WELLS =           0.0000                 WELLS =           0.0000
       RIVER LEAKAGE =           0.0000         RIVER LEAKAGE =           0.0000
     HEAD DEP BOUNDS =     5328279.5000       HEAD DEP BOUNDS =          61.1308
            RECHARGE =      353006.0620              RECHARGE =           4.0500

            TOTAL IN =     6333102.0000              TOTAL IN =          72.6590

          OUT:                                     OUT:
          ----                                     ----
             STORAGE =     5698934.0000               STORAGE =          65.3832
       CONSTANT HEAD =           0.0000         CONSTANT HEAD =           0.0000
               WELLS =      435810.0000                 WELLS =           5.0000
       RIVER LEAKAGE =      198492.0940         RIVER LEAKAGE =           2.2773
     HEAD DEP BOUNDS =           0.0000       HEAD DEP BOUNDS =           0.0000
            RECHARGE =           0.0000              RECHARGE =           0.0000

           TOTAL OUT =     6333236.0000             TOTAL OUT =          72.6605

            IN - OUT =        -134.2188              IN - OUT =      -1.5373E-03

 PERCENT DISCREPANCY =           0.00     PERCENT DISCREPANCY =           0.00






          TIME SUMMARY AT END OF TIME STEP   1 IN STRESS PERIOD    1
                    SECONDS     MINUTES      HOURS       DAYS        YEARS
                    -----------------------------------------------------------
   TIME STEP LENGTH  87162.      1452.7      24.212      1.0088     2.76200E-03
 STRESS PERIOD TIME  87162.      1452.7      24.212      1.0088     2.76200E-03
         TOTAL TIME  87162.      1452.7      24.212      1.0088     2.76200E-03
1
1
                            STRESS PERIOD NO.    2, LENGTH =   261486.0    
                            -----------------------------------------------

                              NUMBER OF TIME STEPS =     1

                               MULTIPLIER FOR DELT =     1.200

                            INITIAL TIME STEP SIZE =   261486.0    

 REUSING NON-PARAMETER WELLS FROM LAST STRESS PERIOD

      5 WELLS

 REUSING NON-PARAMETER RIVER REACHES FROM LAST STRESS PERIOD

     18 RIVER REACHES

 REUSING NON-PARAMETER GHB CELLS FROM LAST STRESS PERIOD

     36 GHB CELLS



 RECH array defined by the following parameters:
 Parameter:  RCH1
 Parameter:  RCH2


                           RECHARGE
 
 SOLVING FOR HEAD 

 HEAD/DRAWDOWN PRINTOUT FLAG = 1     TOTAL BUDGET PRINTOUT FLAG = 1
 CELL-BY-CELL FLOW TERM FLAG = 0
 REUSING PREVIOUS VALUES OF IOFLG
1
              HEAD IN LAYER   1 AT END OF TIME STEP   1 IN STRESS PERIOD    2
  ---------------------------------------------------------------------------

            1           2           3           4           5           6
            7           8           9          10          11          12
           13          14          15          16          17          18
 ........................................................................
   1    100.0       110.1       119.0       127.0       134.3       140.9    
        146.9       152.3       157.2       161.6       165.3       168.5    
        171.2       173.3       175.0       176.2       177.8       187.9    
   2    100.0       110.1       119.0       127.0       134.3       140.9    
        146.9       152.3       157.2       161.6       165.3       168.5    
        171.2       173.3       175.0       176.2       177.8       187.9    
   3    100.0       110.1       119.0       127.0       134.3       140.9    
        146.9       152.3       157.2       161.6       165.3       168.5    
        171.2       173.3       175.0       176.2       177.8       187.9    
   4    100.0       110.1       119.0       127.0       134.3       140.9    
        146.9       152.3       157.2       161.6       165.3       168.5    
        171.2       173.3       175.0       176.2       177.8       187.9    
   5    100.0       110.1       119.0       127.0       134.3       140.9    
        146.9       152.3       157.2       161.6       165.3       168.5    
        171.2       173.3       175.0       176.2       177.8       187.9    
   6    100.0       110.1       119.0       127.0       134.3       140.9    
        146.9       152.3       157.2       161.6       165.3       168.5    
        171.2       173.3       175.0       176.2       177.8       187.9    
   7    100.0       110.1       119.0       127.0       134.3       140.9    
        146.9       152.3       157.2       161.5       165.3       168.5    
        171.2       173.3       175.0       176.2       177.8       187.9    
   8    100.0       110.1       119.0       127.0       134.3       140.9    
        146.9       152.3       157.1       161.2       165.3       168.5    
        171.2       173.3       175.0       176.2       177.8       187.9    
   9    100.0       110.1       119.0       127.0       134.3       140.9    
        146.9       152.2       156.3       156.2       165.0       168.5    
        171.2       173.3       175.0       176.2       177.8       187.9    
  10    100.0       110.1       119.0       127.0       134.3       140.9    
        146.9       152.2       156.6       160.7       165.3       168.5    
        171.2       173.3       175.0       176.2       177.8       187.9    
  11    100.0       110.1       119.0       127.0       134.3       140.9    
        146.9       152.3       157.1       161.5       165.3       168.5    
        171.2       173.3       175.0       176.2       177.8       187.9    
  12    100.0       110.1       119.0       127.0       134.3       140.9    
        146.9       152.3       157.2       161.6       165.3       168.5    
        171.2       173.3       175.0       176.2       177.8       187.9    
  13    100.0       110.1       119.0       127.0       134.3       140.9    
        146.9       152.3       157.2       161.6       165.3       168.5    
        171.2       173.3       175.0       176.2       177.8       187.9    
  14    100.0       110.1       119.0       127.0       134.3       140.9    
        146.9       152.3       157.2       161.6       165.3       168.5    
        171.2       173.3       175.0       176.2       177.8       187.9    
  15    100.0       110.1       119.0       127.0       134.3       140.9    
        146.9       152.3       157.2       161.6       165.3       168.5    
        171.2       173.3       175.0       176.2       177.8       187.9    
  16    100.0       110.1       119.0       127.0       134.3       140.9    
        146.9       152.3       157.2       161.6       165.3       168.5    
        171.2       173.3       175.0       176.2       177.8       187.9    
  17    100.0       110.1       119.0       127.0       134.3       140.9    
        146.9       152.3       157.2       161.6       165.3       168.5    
        171.2       173.3       175.0       176.2       177.8       187.9    
  18    100.0       110.1       119.0       127.0       134.3       140.9    
        146.9       152.3       157.2       161.6       165.3       168.5    
        171.2       173.3       175.0       176.2       177.8       187.9    
1
              HEAD IN LAYER   2 AT END OF TIME STEP   1 IN STRESS PERIOD    2
  ---------------------------------------------------------------------------

            1           2           3           4           5           6
            7           8           9          10          11          12
           13          14          15          16          17          18
 ........................................................................
   1    100.2       110.1       119.0       127.0       134.3       140.9    
        146.9       152.3       157.2       161.5       165.3       168.5    
        171.1       173.3       174.9       176.2       177.8       187.8    
   2    100.2       110.1       119.0       127.0       134.3       140.9    
        146.9       152.3       157.2       161.5       165.3       168.5    
        171.1       173.3       174.9       176.2       177.8       187.8    
   3    100.2       110.1       119.0       127.0       134.3       140.9    
        146.9       152.3       157.2       161.5       165.3       168.5    
        171.1       173.3       174.9       176.2       177.8       187.8    
   4    100.2       110.1       119.0       127.0       134.3       140.9    
        146.9       152.3       157.2       161.5       165.3       168.5    
        171.1       173.3       174.9       176.2       177.8       187.8    
   5    100.2       110.1       119.0       127.0       134.3       140.9    
        146.9       152.3       157.2       161.5       165.3       168.5    
        171.1       173.3       174.9       176.2       177.8       187.8    
   6    100.2       110.1       119.0       127.0       134.3       140.9    
        146.9       152.3       157.2       161.5       165.3       168.5    
        171.1       173.3       174.9       176.2       177.8       187.8    
   7    100.2       110.1       119.0       127.0       134.3       140.9    
        146.9       152.3       157.1       161.5       165.3       168.5    
        171.1       173.3       174.9       176.2       177.8       187.8    
   8    100.2       110.1       119.0       127.0       134.3       140.9    
        146.9       152.3       157.0       161.2       165.3       168.5    
        171.1       173.3       174.9       176.2       177.8       187.8    
   9    100.2       110.1       119.0       127.0       134.3       140.9    
        146.9       152.1       153.8       155.8       165.0       168.5    
        171.1       173.3       174.9       176.2       177.8       187.8    
  10    100.2       110.1       119.0       127.0       134.3       140.9    
        146.9       152.1       154.0       158.3       165.1       168.5    
        171.1       173.3       174.9       176.2       177.8       187.8    
  11    100.2       110.1       119.0       127.0       134.3       140.9    
        146.9       152.3       157.0       161.4       165.3       168.5    
        171.1       173.3       174.9       176.2       177.8       187.8    
  12    100.2       110.1       119.0       127.0       134.3       140.9    
        146.9       152.3       157.1       161.5       165.3       168.5    
        171.1       173.3       174.9       176.2       177.8       187.8    
  13    100.2       110.1       119.0       127.0       134.3       140.9    
        146.9       152.3       157.2       161.5       165.3       168.5    
        171.1       173.3       174.9       176.2       177.8       187.8    
  14    100.2       110.1       119.0       127.0       134.3       140.9    
        146.9       152.3       157.2       161.5       165.3       168.5    
        171.1       173.3       174.9       176.2       177.8       187.8    
  15    100.2       110.1       119.0       127.0       134.3       140.9    
        146.9       152.3       157.2       161.5       165.3       168.5    
        171.1       173.3       174.9       176.2       177.8       187.8    
  16    100.2       110.1       119.0       127.0       134.3       140.9    
        146.9       152.3       157.2       161.5       165.3       168.5    
        171.1       173.3       174.9       176.2       177.8       187.8    
  17    100.2       110.1       119.0       127.0       134.3       140.9    
        146.9       152.3       157.2       161.5       165.3       168.5    
        171.1       173.3       174.9       176.2       177.8       187.8    
  18    100.2       110.1       119.0       127.0       134.3       140.9    
        146.9       152.3       157.2       161.5       165.3       168.5    
        171.1       173.3       174.9       176.2       177.8       187.8    
1
              HEAD IN LAYER   3 AT END OF TIME STEP   1 IN STRESS PERIOD    2
  ---------------------------------------------------------------------------

            1           2           3           4           5           6
            7           8           9          10          11          12
           13          14          15          16          17          18
 ........................................................................
   1    100.3       110.0       119.0       127.0       134.3       140.9    
        146.9       152.3       157.1       161.5       165.3       168.5    
        171.1       173.2       174.9       176.2       177.8       187.8    
   2    100.3       110.0       119.0       127.0       134.3       140.9    
        146.9       152.3       157.1       161.5       165.3       168.5    
        171.1       173.2       174.9       176.2       177.8       187.8    
   3    100.3       110.0       119.0       127.0       134.3       140.9    
        146.9       152.3       157.1       161.5       165.3       168.5    
        171.1       173.2       174.9       176.2       177.8       187.8    
   4    100.3       110.0       119.0       127.0       134.3       140.9    
        146.9       152.3       157.1       161.5       165.3       168.5    
        171.1       173.2       174.9       176.2       177.8       187.8    
   5    100.3       110.0       119.0       127.0       134.3       140.9    
        146.9       152.3       157.1       161.5       165.3       168.5    
        171.1       173.2       174.9       176.2       177.8       187.8    
   6    100.3       110.0       119.0       127.0       134.3       140.9    
        146.9       152.3       157.1       161.5       165.3       168.5    
        171.1       173.2       174.9       176.2       177.8       187.8    
   7    100.3       110.0       119.0       127.0       134.3       140.9    
        146.9       152.3       157.1       161.5       165.3       168.5    
        171.1       173.2       174.9       176.2       177.8       187.8    
   8    100.3       110.0       119.0       127.0       134.3       140.9    
        146.9       152.2       156.9       161.2       165.3       168.5    
        171.1       173.2       174.9       176.2       177.8       187.8    
   9    100.3       110.0       119.0       127.0       134.3       140.9    
        146.9       152.0       151.3       155.4       165.0       168.4    
        171.1       173.2       174.9       176.2       177.8       187.8    
  10    100.3       110.0       119.0       127.0       134.3       140.9    
        146.9       152.0       151.4       155.7       165.0       168.5    
        171.1       173.2       174.9       176.2       177.8       187.8    
  11    100.3       110.0       119.0       127.0       134.3       140.9    
        146.9       152.2       156.9       161.3       165.3       168.5    
        171.1       173.2       174.9       176.2       177.8       187.8    
  12    100.3       110.0       119.0       127.0       134.3       140.9    
        146.9       152.3       157.1       161.5       165.3       168.5    
        171.1       173.2       174.9       176.2       177.8       187.8    
  13    100.3       110.0       119.0       127.0       134.3       140.9    
        146.9       152.3       157.1       161.5       165.3       168.5    
        171.1       173.2       174.9       176.2       177.8       187.8    
  14    100.3       110.0       119.0       127.0       134.3       140.9    
        146.9       152.3       157.1       161.5       165.3       168.5    
        171.1       173.2       174.9       176.2       177.8       187.8    
  15    100.3       110.0       119.0       127.0       134.3       140.9    
        146.9       152.3       157.1       161.5       165.3       168.5    
        171.1       173.2       174.9       176.2       177.8       187.8    
  16    100.3       110.0       119.0       127.0       134.3       140.9    
        146.9       152.3       157.1       161.5       165.3       168.5    
        171.1       173.2       174.9       176.2       177.8       187.8    
  17    100.3       110.0       119.0       127.0       134.3       140.9    
        146.9       152.3       157.1       161.5       165.3       168.5    
        171.1       173.2       174.9       176.2       177.8       187.8    
  18    100.3       110.0       119.0       127.0       134.3       140.9    
        146.9       152.3       157.1       161.5       165.3       168.5    
        171.1       173.2       174.9       176.2       177.8       187.8    
1
  VOLUMETRIC BUDGET FOR ENTIRE MODEL AT END OF TIME STEP  1 IN STRESS PERIOD   2
  ------------------------------------------------------------------------------

     CUMULATIVE VOLUMES      L**3       RATES FOR THIS TIME STEP      L**3/T
     ------------------                 ------------------------

           IN:                                      IN:
           ---                                      ---
             STORAGE =     2155742.7500               STORAGE =           5.7515
       CONSTANT HEAD =           0.0000         CONSTANT HEAD =           0.0000
               WELLS =           0.0000                 WELLS =           0.0000
       RIVER LEAKAGE =           0.0000         RIVER LEAKAGE =           0.0000
     HEAD DEP BOUNDS =    20592602.0000       HEAD DEP BOUNDS =          58.3753
            RECHARGE =     1412024.2500              RECHARGE =           4.0500

            TOTAL IN =    24160368.0000              TOTAL IN =          68.1768

          OUT:                                     OUT:
          ----                                     ----
             STORAGE =    21999896.0000               STORAGE =          62.3397
       CONSTANT HEAD =           0.0000         CONSTANT HEAD =           0.0000
               WELLS =     1743240.0000                 WELLS =           5.0000
       RIVER LEAKAGE =      417344.3440         RIVER LEAKAGE =           0.8370
     HEAD DEP BOUNDS =           0.0000       HEAD DEP BOUNDS =           0.0000
            RECHARGE =           0.0000              RECHARGE =           0.0000

           TOTAL OUT =    24160480.0000             TOTAL OUT =          68.1767

            IN - OUT =        -111.3438              IN - OUT =       9.2208E-05

 PERCENT DISCREPANCY =           0.00     PERCENT DISCREPANCY =           0.00






          TIME SUMMARY AT END OF TIME STEP   1 IN STRESS PERIOD    2
                    SECONDS     MINUTES      HOURS       DAYS        YEARS
                    -----------------------------------------------------------
   TIME STEP LENGTH 2.61486E+05  4358.1      72.635      3.0265     8.28599E-03
 STRESS PERIOD TIME 2.61486E+05  4358.1      72.635      3.0265     8.28599E-03
         TOTAL TIME 3.48648E+05  5810.8      96.847      4.0353     1.10480E-02
1
1
                            STRESS PERIOD NO.    3, LENGTH =   522972.0    
                            -----------------------------------------------

                              NUMBER OF TIME STEPS =     1

                               MULTIPLIER FOR DELT =     1.200

                            INITIAL TIME STEP SIZE =   522972.0    

 REUSING NON-PARAMETER WELLS FROM LAST STRESS PERIOD

      5 WELLS

 REUSING NON-PARAMETER RIVER REACHES FROM LAST STRESS PERIOD

     18 RIVER REACHES

 REUSING NON-PARAMETER GHB CELLS FROM LAST STRESS PERIOD

     36 GHB CELLS



 RECH array defined by the following parameters:
 Parameter:  RCH1
 Parameter:  RCH2


                           RECHARGE
 
 SOLVING FOR HEAD 

 HEAD/DRAWDOWN PRINTOUT FLAG = 1     TOTAL BUDGET PRINTOUT FLAG = 1
 CELL-BY-CELL FLOW TERM FLAG = 0

 OUTPUT FLAGS FOR ALL LAYERS ARE THE SAME:
   HEAD    DRAWDOWN  HEAD  DRAWDOWN
 PRINTOUT  PRINTOUT  SAVE    SAVE
 ----------------------------------
     0         0       0       0
1
  VOLUMETRIC BUDGET FOR ENTIRE MODEL AT END OF TIME STEP  1 IN STRESS PERIOD   3
  ------------------------------------------------------------------------------

     CUMULATIVE VOLUMES      L**3       RATES FOR THIS TIME STEP      L**3/T
     ------------------                 ------------------------

           IN:                                      IN:
           ---                                      ---
             STORAGE =     4794707.5000               STORAGE =           5.0461
       CONSTANT HEAD =           0.0000         CONSTANT HEAD =           0.0000
               WELLS =           0.0000                 WELLS =           0.0000
       RIVER LEAKAGE =           0.0000         RIVER LEAKAGE =           0.0000
     HEAD DEP BOUNDS =    48792768.0000       HEAD DEP BOUNDS =          53.9229
            RECHARGE =     3530060.7500              RECHARGE =           4.0500

            TOTAL IN =    57117536.0000              TOTAL IN =          63.0190

          OUT:                                     OUT:
          ----                                     ----
             STORAGE =    52125912.0000               STORAGE =          57.6054
       CONSTANT HEAD =           0.0000         CONSTANT HEAD =           0.0000
               WELLS =     4358100.0000                 WELLS =           5.0000
       RIVER LEAKAGE =      633675.4380         RIVER LEAKAGE =           0.4137
     HEAD DEP BOUNDS =           0.0000       HEAD DEP BOUNDS =           0.0000
            RECHARGE =           0.0000              RECHARGE =           0.0000

           TOTAL OUT =    57117688.0000             TOTAL OUT =          63.0191

            IN - OUT =        -151.1875              IN - OUT =      -7.9602E-05

 PERCENT DISCREPANCY =           0.00     PERCENT DISCREPANCY =           0.00






          TIME SUMMARY AT END OF TIME STEP   1 IN STRESS PERIOD    3
                    SECONDS     MINUTES      HOURS       DAYS        YEARS
                    -----------------------------------------------------------
   TIME STEP LENGTH 5.22972E+05  8716.2      145.27      6.0529     1.65720E-02
 STRESS PERIOD TIME 5.22972E+05  8716.2      145.27      6.0529     1.65720E-02
         TOTAL TIME 8.71620E+05  14527.      242.12      10.088     2.76200E-02
1
1
                            STRESS PERIOD NO.    4, LENGTH =  0.2356744E+08
                            -----------------------------------------------

                              NUMBER OF TIME STEPS =     9

                               MULTIPLIER FOR DELT =     1.200

                            INITIAL TIME STEP SIZE =   1133110.    

 REUSING NON-PARAMETER WELLS FROM LAST STRESS PERIOD

      5 WELLS

 REUSING NON-PARAMETER RIVER REACHES FROM LAST STRESS PERIOD

     18 RIVER REACHES

 REUSING NON-PARAMETER GHB CELLS FROM LAST STRESS PERIOD

     36 GHB CELLS



 RECH array defined by the following parameters:
 Parameter:  RCH1
 Parameter:  RCH2


                           RECHARGE
 
 SOLVING FOR HEAD 

 HEAD/DRAWDOWN PRINTOUT FLAG = 1     TOTAL BUDGET PRINTOUT FLAG = 1
 CELL-BY-CELL FLOW TERM FLAG = 0
 REUSING PREVIOUS VALUES OF IOFLG
1
  VOLUMETRIC BUDGET FOR ENTIRE MODEL AT END OF TIME STEP  1 IN STRESS PERIOD   4
  ------------------------------------------------------------------------------

     CUMULATIVE VOLUMES      L**3       RATES FOR THIS TIME STEP      L**3/T
     ------------------                 ------------------------

           IN:                                      IN:
           ---                                      ---
             STORAGE =    10169505.0000               STORAGE =           4.7434
       CONSTANT HEAD =           0.0000         CONSTANT HEAD =           0.0000
               WELLS =           0.0000                 WELLS =           0.0000
       RIVER LEAKAGE =           0.0000         RIVER LEAKAGE =           0.0000
     HEAD DEP BOUNDS =   102297600.0000       HEAD DEP BOUNDS =          47.2195
            RECHARGE =     8119156.0000              RECHARGE =           4.0500

            TOTAL IN =   120586264.0000              TOTAL IN =          56.0129

          OUT:                                     OUT:
          ----                                     ----
             STORAGE =   109478952.0000               STORAGE =          50.6156
       CONSTANT HEAD =           0.0000         CONSTANT HEAD =           0.0000
               WELLS =    10023650.0000                 WELLS =           5.0000
       RIVER LEAKAGE =     1083814.3800         RIVER LEAKAGE =           0.3973
     HEAD DEP BOUNDS =           0.0000       HEAD DEP BOUNDS =           0.0000
            RECHARGE =           0.0000              RECHARGE =           0.0000

           TOTAL OUT =   120586416.0000             TOTAL OUT =          56.0129

            IN - OUT =        -155.3750              IN - OUT =      -1.3709E-06

 PERCENT DISCREPANCY =           0.00     PERCENT DISCREPANCY =           0.00






          TIME SUMMARY AT END OF TIME STEP   1 IN STRESS PERIOD    4
                    SECONDS     MINUTES      HOURS       DAYS        YEARS
                    -----------------------------------------------------------
   TIME STEP LENGTH 1.13311E+06  18885.      314.75      13.115     3.59061E-02
 STRESS PERIOD TIME 1.13311E+06  18885.      314.75      13.115     3.59061E-02
         TOTAL TIME 2.00473E+06  33412.      556.87      23.203     6.35261E-02
1
 
 SOLVING FOR HEAD 

 HEAD/DRAWDOWN PRINTOUT FLAG = 1     TOTAL BUDGET PRINTOUT FLAG = 1
 CELL-BY-CELL FLOW TERM FLAG = 0
 REUSING PREVIOUS VALUES OF IOFLG
1
  VOLUMETRIC BUDGET FOR ENTIRE MODEL AT END OF TIME STEP  2 IN STRESS PERIOD   4
  ------------------------------------------------------------------------------

     CUMULATIVE VOLUMES      L**3       RATES FOR THIS TIME STEP      L**3/T
     ------------------                 ------------------------

           IN:                                      IN:
           ---                                      ---
             STORAGE =    16389893.0000               STORAGE =           4.5747
       CONSTANT HEAD =           0.0000         CONSTANT HEAD =           0.0000
               WELLS =           0.0000                 WELLS =           0.0000
       RIVER LEAKAGE =           0.0000         RIVER LEAKAGE =           0.0000
     HEAD DEP BOUNDS =   158897632.0000       HEAD DEP BOUNDS =          41.6259
            RECHARGE =    13626070.0000              RECHARGE =           4.0500

            TOTAL IN =   188913600.0000              TOTAL IN =          50.2506

          OUT:                                     OUT:
          ----                                     ----
             STORAGE =   170403664.0000               STORAGE =          44.8064
       CONSTANT HEAD =           0.0000         CONSTANT HEAD =           0.0000
               WELLS =    16822310.0000                 WELLS =           5.0000
       RIVER LEAKAGE =     1687874.5000         RIVER LEAKAGE =           0.4442
     HEAD DEP BOUNDS =           0.0000       HEAD DEP BOUNDS =           0.0000
            RECHARGE =           0.0000              RECHARGE =           0.0000

           TOTAL OUT =   188913856.0000             TOTAL OUT =          50.2507

            IN - OUT =        -253.5000              IN - OUT =      -7.9393E-05

 PERCENT DISCREPANCY =           0.00     PERCENT DISCREPANCY =           0.00






          TIME SUMMARY AT END OF TIME STEP   2 IN STRESS PERIOD    4
                    SECONDS     MINUTES      HOURS       DAYS        YEARS
                    -----------------------------------------------------------
   TIME STEP LENGTH 1.35973E+06  22662.      377.70      15.738     4.30873E-02
 STRESS PERIOD TIME 2.49284E+06  41547.      692.46      28.852     7.89934E-02
         TOTAL TIME 3.36446E+06  56074.      934.57      38.941     0.10661    
1
 
 SOLVING FOR HEAD 

 HEAD/DRAWDOWN PRINTOUT FLAG = 1     TOTAL BUDGET PRINTOUT FLAG = 1
 CELL-BY-CELL FLOW TERM FLAG = 0

 OUTPUT FLAGS FOR ALL LAYERS ARE THE SAME:
   HEAD    DRAWDOWN  HEAD  DRAWDOWN
 PRINTOUT  PRINTOUT  SAVE    SAVE
 ----------------------------------
     0         0       0       0
1
  VOLUMETRIC BUDGET FOR ENTIRE MODEL AT END OF TIME STEP  3 IN STRESS PERIOD   4
  ------------------------------------------------------------------------------

     CUMULATIVE VOLUMES      L**3       RATES FOR THIS TIME STEP      L**3/T
     ------------------                 ------------------------

           IN:                                      IN:
           ---                                      ---
             STORAGE =    23458556.0000               STORAGE =           4.3321
       CONSTANT HEAD =           0.0000         CONSTANT HEAD =           0.0000
               WELLS =           0.0000                 WELLS =           0.0000
       RIVER LEAKAGE =           0.0000         RIVER LEAKAGE =           0.0000
     HEAD DEP BOUNDS =   219148608.0000       HEAD DEP BOUNDS =          36.9258
            RECHARGE =    20234368.0000              RECHARGE =           4.0500

            TOTAL IN =   262841536.0000              TOTAL IN =          45.3079

          OUT:                                     OUT:
          ----                                     ----
             STORAGE =   235376992.0000               STORAGE =          39.8199
       CONSTANT HEAD =           0.0000         CONSTANT HEAD =           0.0000
               WELLS =    24980702.0000                 WELLS =           5.0000
       RIVER LEAKAGE =     2484133.2500         RIVER LEAKAGE =           0.4880
     HEAD DEP BOUNDS =           0.0000       HEAD DEP BOUNDS =           0.0000
            RECHARGE =           0.0000              RECHARGE =           0.0000

           TOTAL OUT =   262841824.0000             TOTAL OUT =          45.3079

            IN - OUT =        -295.2500              IN - OUT =      -3.0428E-05

 PERCENT DISCREPANCY =           0.00     PERCENT DISCREPANCY =           0.00






          TIME SUMMARY AT END OF TIME STEP   3 IN STRESS PERIOD    4
                    SECONDS     MINUTES      HOURS       DAYS        YEARS
                    -----------------------------------------------------------
   TIME STEP LENGTH 1.63168E+06  27195.      453.24      18.885     5.17048E-02
 STRESS PERIOD TIME 4.12452E+06  68742.      1145.7      47.738     0.13070    
         TOTAL TIME 4.99614E+06  83269.      1387.8      57.826     0.15832    
1
 
 SOLVING FOR HEAD 

 HEAD/DRAWDOWN PRINTOUT FLAG = 1     TOTAL BUDGET PRINTOUT FLAG = 0
 CELL-BY-CELL FLOW TERM FLAG = 0
 REUSING PREVIOUS VALUES OF IOFLG
 
 SOLVING FOR HEAD 

 HEAD/DRAWDOWN PRINTOUT FLAG = 1     TOTAL BUDGET PRINTOUT FLAG = 0
 CELL-BY-CELL FLOW TERM FLAG = 0
 REUSING PREVIOUS VALUES OF IOFLG
 
 SOLVING FOR HEAD 

 CELL CONVERSIONS FOR ITER.= 11  LAYER=  1  STEP=  6  PERIOD=  4   (ROW,COL)
    DRY(  9, 10)   

 HEAD/DRAWDOWN PRINTOUT FLAG = 1     TOTAL BUDGET PRINTOUT FLAG = 0
 CELL-BY-CELL FLOW TERM FLAG = 0

 OUTPUT FLAGS FOR ALL LAYERS ARE THE SAME:
   HEAD    DRAWDOWN  HEAD  DRAWDOWN
 PRINTOUT  PRINTOUT  SAVE    SAVE
 ----------------------------------
     0         0       0       0
 
 SOLVING FOR HEAD 

 HEAD/DRAWDOWN PRINTOUT FLAG = 1     TOTAL BUDGET PRINTOUT FLAG = 0
 CELL-BY-CELL FLOW TERM FLAG = 0
 REUSING PREVIOUS VALUES OF IOFLG
 
 SOLVING FOR HEAD 

 HEAD/DRAWDOWN PRINTOUT FLAG = 1     TOTAL BUDGET PRINTOUT FLAG = 0
 CELL-BY-CELL FLOW TERM FLAG = 0
 REUSING PREVIOUS VALUES OF IOFLG
 
 SOLVING FOR HEAD 

 HEAD/DRAWDOWN PRINTOUT FLAG = 1     TOTAL BUDGET PRINTOUT FLAG = 0
 CELL-BY-CELL FLOW TERM FLAG = 0

 OUTPUT FLAGS FOR ALL LAYERS ARE THE SAME:
   HEAD    DRAWDOWN  HEAD  DRAWDOWN
 PRINTOUT  PRINTOUT  SAVE    SAVE
 ----------------------------------
     0         0       0       0
1
  VOLUMETRIC BUDGET FOR ENTIRE MODEL AT END OF TIME STEP  9 IN STRESS PERIOD   4
  ------------------------------------------------------------------------------

     CUMULATIVE VOLUMES      L**3       RATES FOR THIS TIME STEP      L**3/T
     ------------------                 ------------------------

           IN:                                      IN:
           ---                                      ---
             STORAGE =    63060616.0000               STORAGE =           1.0263
       CONSTANT HEAD =           0.0000         CONSTANT HEAD =           0.0000
               WELLS =           0.0000                 WELLS =           0.0000
       RIVER LEAKAGE =           0.0000         RIVER LEAKAGE =           0.0000
     HEAD DEP BOUNDS =   691233920.0000       HEAD DEP BOUNDS =          19.5175
            RECHARGE =    98751192.0000              RECHARGE =           4.0350

            TOTAL IN =   853045760.0000              TOTAL IN =          24.5788

          OUT:                                     OUT:
          ----                                     ----
             STORAGE =   731190592.0000               STORAGE =          19.8692
       CONSTANT HEAD =           0.0000         CONSTANT HEAD =           0.0000
               WELLS =   107060048.0000                 WELLS =           4.0000
       RIVER LEAKAGE =    14796831.0000         RIVER LEAKAGE =           0.7097
     HEAD DEP BOUNDS =           0.0000       HEAD DEP BOUNDS =           0.0000
            RECHARGE =           0.0000              RECHARGE =           0.0000

           TOTAL OUT =   853047488.0000             TOTAL OUT =          24.5789

            IN - OUT =       -1743.0000              IN - OUT =      -9.9540E-05

 PERCENT DISCREPANCY =           0.00     PERCENT DISCREPANCY =           0.00






          TIME SUMMARY AT END OF TIME STEP   9 IN STRESS PERIOD    4
                    SECONDS     MINUTES      HOURS       DAYS        YEARS
                    -----------------------------------------------------------
   TIME STEP LENGTH 4.87217E+06  81203.      1353.4      56.391     0.15439    
 STRESS PERIOD TIME 2.35674E+07 3.92791E+05  6546.5      272.77     0.74681    
         TOTAL TIME 2.44391E+07 4.07318E+05  6788.6      282.86     0.77443    
1

 DATA AT HEAD LOCATIONS

        OBSERVATION     OBSER-     SIMUL.                          WEIGHTED
   OBS#    NAME         VATION     EQUIV.    RESIDUAL  WEIGHT**.5  RESIDUAL
                          *          *
      1 H1_8_8_1        152.       152.     -0.305E-04   1.00     -0.305E-04
      2 H1_8_8_2        152.       152.      0.519E-03   1.00      0.519E-03
      3 H1_8_8_3        152.       152.      0.916E-04   1.00      0.916E-04
      4 H1_8_8_4        141.       141.     -0.105E-02   1.00     -0.105E-02
      5 H2_8_8_1        152.       152.     -0.763E-04   1.00     -0.763E-04
      6 H2_8_8_2        152.       152.     -0.275E-03   1.00     -0.275E-03
      7 H2_8_8_3        152.       152.      0.534E-03   1.00      0.534E-03
      8 H2_8_8_4        140.       140.     -0.186E-02   1.00     -0.186E-02
      9 H3_8_8_1        152.       152.     -0.916E-04   1.00     -0.916E-04
     10 H3_8_8_2        152.       152.     -0.763E-04   1.00     -0.763E-04
     11 H3_8_8_3        152.       152.      0.108E-02   1.00      0.108E-02
     12 H3_8_8_4        139.       139.      0.113E-02   1.00      0.113E-02
     13 H1_2_2_1        110.       110.     -0.305E-03   1.00     -0.305E-03
     14 H1_2_2_2        110.       110.     -0.153E-03   1.00     -0.153E-03
     15 H1_2_2_3        110.       110.      0.290E-03   1.00      0.290E-03
     16 H1_2_2_4        118.       118.     -0.626E-03   1.00     -0.626E-03
     17 H2_2_2_1        110.       110.     -0.183E-03   1.00     -0.183E-03
     18 H2_2_2_2        110.       110.     -0.374E-03   1.00     -0.374E-03
     19 H2_2_2_3        110.       110.     -0.229E-04   1.00     -0.229E-04
     20 H2_2_2_4        117.       117.     -0.221E-03   1.00     -0.221E-03
     21 H3_2_2_1        110.       110.      0.107E-03   1.00      0.107E-03
     22 H3_2_2_2        110.       110.     -0.420E-03   1.00     -0.420E-03
     23 H3_2_2_3        110.       110.     -0.755E-03   1.00     -0.755E-03
     24 H3_2_2_4        117.       117.      0.153E-03   1.00      0.153E-03
     25 H1_16_16_1      176.       176.     -0.412E-03   1.00     -0.412E-03
     26 H1_16_16_2      176.       176.      0.259E-03   1.00      0.259E-03
     27 H1_16_16_3      177.       177.      0.121E-02   1.00      0.121E-02
     28 H1_16_16_4      240.       240.      0.113E-02   1.00      0.113E-02
     29 H2_16_16_1      176.       176.     -0.244E-03   1.00     -0.244E-03
     30 H2_16_16_2      176.       176.      0.458E-03   1.00      0.458E-03
     31 H2_16_16_3      177.       177.     -0.244E-03   1.00     -0.244E-03
     32 H2_16_16_4      240.       240.      0.519E-03   1.00      0.519E-03
     33 H3_16_16_1      176.       176.     -0.458E-04   1.00     -0.458E-04
     34 H3_16_16_2      176.       176.     -0.381E-03   1.00     -0.381E-03
     35 H3_16_16_3      177.       177.     -0.824E-03   1.00     -0.824E-03
     36 H3_16_16_4      240.       240.     -0.131E-02   1.00     -0.131E-02
     37 H1_16_2_1       110.       110.     -0.305E-03   1.00     -0.305E-03
     38 H1_16_2_2       110.       110.     -0.153E-03   1.00     -0.153E-03
     39 H1_16_2_3       110.       110.      0.290E-03   1.00      0.290E-03
     40 H1_16_2_4       118.       118.     -0.748E-03   1.00     -0.748E-03
     41 H2_16_2_1       110.       110.     -0.183E-03   1.00     -0.183E-03
     42 H2_16_2_2       110.       110.     -0.374E-03   1.00     -0.374E-03
     43 H2_16_2_3       110.       110.     -0.229E-04   1.00     -0.229E-04
     44 H2_16_2_4       117.       117.     -0.557E-03   1.00     -0.557E-03
     45 H3_16_2_1       110.       110.      0.107E-03   1.00      0.107E-03
     46 H3_16_2_2       110.       110.     -0.420E-03   1.00     -0.420E-03
     47 H3_16_2_3       110.       110.     -0.755E-03   1.00     -0.755E-03
     48 H3_16_2_4       117.       117.      0.603E-03   1.00      0.603E-03

 * THE OBSERVATION (AND CORRESPONDING SIMULATED EQUIVALENT) IS HEAD OR TEMPORAL
   CHANGE IN HEAD, AS SPECIFIED IN THE "HOB" INPUT FILE.  NEGATIVE TEMPORAL
   CHANGES INDICATE DRAWDOWN.

 STATISTICS FOR HEAD RESIDUALS :
 MAXIMUM WEIGHTED RESIDUAL  : 0.121E-02 OBS#     27
 MINIMUM WEIGHTED RESIDUAL  :-0.186E-02 OBS#      8
 AVERAGE WEIGHTED RESIDUAL  :-0.105E-03
 # RESIDUALS >= 0. :     16
 # RESIDUALS < 0.  :     32
 NUMBER OF RUNS  :   24  IN   48 OBSERVATIONS

 SUM OF SQUARED WEIGHTED RESIDUALS (HEADS ONLY)  0.17754E-04

 DATA FOR FLOWS REPRESENTED USING THE GENERAL-HEAD BOUNDARY PACKAGE

        OBSERVATION      MEAS.      CALC.                          WEIGHTED
   OBS#    NAME          FLOW       FLOW     RESIDUAL  WEIGHT**.5  RESIDUAL

     49 GHB1            30.6       30.6      0.370E-01  0.654      0.242E-01
     50 GHB2            29.2       29.2      0.274E-01  0.685      0.187E-01
     51 GHB3            26.9       26.9     -0.166E-01  0.743     -0.123E-01
     52 GHB4            9.62       9.62      0.813E-03   2.08      0.169E-02

 STATISTICS FOR GENERAL-HEAD BOUNDARY FLOW RESIDUALS :
 MAXIMUM WEIGHTED RESIDUAL  : 0.242E-01 OBS#     49
 MINIMUM WEIGHTED RESIDUAL  :-0.123E-01 OBS#     51
 AVERAGE WEIGHTED RESIDUAL  : 0.807E-02
 # RESIDUALS >= 0. :      3
 # RESIDUALS < 0.  :      1
 NUMBER OF RUNS:      3  IN      4 OBSERVATIONS

 SUM OF SQUARED WEIGHTED RESIDUALS
   (GENERAL-HEAD BOUNDARY FLOWS ONLY)  0.10925E-02

 SUM OF SQUARED WEIGHTED RESIDUALS (ALL DEPENDENT VARIABLES)  0.11102E-02

 STATISTICS FOR ALL RESIDUALS :
 AVERAGE WEIGHTED RESIDUAL  : 0.524E-03
 # RESIDUALS >= 0. :     19
 # RESIDUALS < 0.  :     33
 NUMBER OF RUNS  :   26  IN   52 OBSERVATIONS

 THE NUMBER OF RUNS EQUALS THE EXPECTED NUMBER OF RUNS

 ORDERED DEPENDENT-VARIABLE WEIGHTED RESIDUALS
 NUMBER OF RESIDUALS INCLUDED:        52
    -0.123E-01 -0.186E-02 -0.131E-02 -0.105E-02 -0.824E-03 -0.755E-03 -0.755E-03
    -0.748E-03 -0.626E-03 -0.557E-03 -0.420E-03 -0.420E-03 -0.412E-03 -0.381E-03
    -0.374E-03 -0.374E-03 -0.305E-03 -0.305E-03 -0.275E-03 -0.244E-03 -0.244E-03
    -0.221E-03 -0.183E-03 -0.183E-03 -0.153E-03 -0.153E-03 -0.916E-04 -0.763E-04
    -0.763E-04 -0.458E-04 -0.305E-04 -0.229E-04 -0.229E-04  0.916E-04  0.107E-03
     0.107E-03  0.153E-03  0.259E-03  0.290E-03  0.290E-03  0.458E-03  0.519E-03
     0.519E-03  0.534E-03  0.603E-03  0.108E-02  0.113E-02  0.113E-02  0.121E-02
     0.169E-02  0.187E-01  0.242E-01

 CORRELATION BETWEEN ORDERED WEIGHTED RESIDUALS AND NORMAL ORDER STATISTICS
 FOR OBSERVATIONS =    0.391    

 --------------------------------------------------------------------------
 COMMENTS ON THE INTERPRETATION OF THE CORRELATION BETWEEN
 WEIGHTED RESIDUALS AND NORMAL ORDER STATISTICS:

 The critical value for correlation at the 5% significance level is 0.956

 IF the reported CORRELATION is GREATER than the 5% critical value, ACCEPT
 the hypothesis that the weighted residuals are INDEPENDENT AND NORMALLY
 DISTRIBUTED at the 5% significance level.  The probability that this   
 conclusion is wrong is less than 5%.

 IF the reported correlation IS LESS THAN the 5% critical value REJECT the
 hypothesis that the weighted residuals are INDEPENDENT AND NORMALLY
 DISTRIBUTED at the 5% significance level.

 The analysis can also be done using the 10% significance level.
 The associated critical value is 0.964
 --------------------------------------------------------------------------

