                                  MODFLOW-2000
      U.S. GEOLOGICAL SURVEY MODULAR FINITE-DIFFERENCE GROUND-WATER FLOW MODEL
                           VERSION 1.17.01 09/22/2006


 This model run produced both GLOBAL and LIST files.  This is the LIST file.

 
 # MODULAR MODEL - TWO-LAYER EXAMPLE PROBLEM                                     
 # test case tc1obsen                                                            
 THE FREE FORMAT OPTION HAS BEEN SELECTED
    2 LAYERS        18 ROWS        18 COLUMNS
    5 STRESS PERIOD(S) IN SIMULATION

 BAS6 -- BASIC PACKAGE, VERSION 6, 1/11/2000 INPUT READ FROM UNIT   41
         10 ELEMENTS IN IR ARRAY ARE USED BY BAS

 WEL6 -- WELL PACKAGE, VERSION 6, 1/11/2000 INPUT READ FROM UNIT   43
 # WEL file for test case tc1obsen
 #
     1 Named Parameters         2 List entries
 MAXIMUM OF      2 ACTIVE WELLS AT ONE TIME
         16 ELEMENTS IN RX ARRAY ARE USED BY WEL

 RIV6 -- RIVER PACKAGE, VERSION 6, 1/11/2000 INPUT READ FROM UNIT   47
 # RIV file for test case tc1obsen
 #
     1 Named Parameters        18 List entries
 MAXIMUM OF     18 ACTIVE RIVER REACHES AT ONE TIME
        216 ELEMENTS IN RX ARRAY ARE USED BY RIV

 GHB6 -- GHB PACKAGE, VERSION 6, 1/11/2000 INPUT READ FROM UNIT   46
 # GHB file for test case tc1obsen
 #
 No named parameters
 MAXIMUM OF     36 ACTIVE GHB CELLS AT ONE TIME
        180 ELEMENTS IN RX ARRAY ARE USED BY GHB

 RCH6 -- RECHARGE PACKAGE, VERSION 6, 1/11/2000 INPUT READ FROM UNIT   48
 # RCH file for test case tc1obsen
 #
     2 Named Parameters     
 OPTION 1 -- RECHARGE TO TOP LAYER
        324 ELEMENTS IN RX ARRAY ARE USED BY RCH
        324 ELEMENTS IN IR ARRAY ARE USED BY RCH

        736  ELEMENTS OF RX ARRAY USED OUT OF        736
          0  ELEMENTS OF RZ ARRAY USED OUT OF          1
        334  ELEMENTS OF IR ARRAY USED OUT OF        334
1
 # MODULAR MODEL - TWO-LAYER EXAMPLE PROBLEM                                     
 # test case tc1obsen                                                            

           BOUNDARY ARRAY =              1 FOR LAYER   1

           BOUNDARY ARRAY =              1 FOR LAYER   2

 AQUIFER HEAD WILL BE SET TO  0.0000     AT ALL NO-FLOW NODES (IBOUND=0).

             INITIAL HEAD =   200.000     FOR LAYER   1

             INITIAL HEAD =   200.000     FOR LAYER   2

 OUTPUT CONTROL IS SPECIFIED ONLY AT TIME STEPS FOR WHICH OUTPUT IS DESIRED
 HEAD PRINT FORMAT CODE IS  14    DRAWDOWN PRINT FORMAT CODE IS   0
 HEADS WILL BE SAVED ON UNIT    0    DRAWDOWNS WILL BE SAVED ON UNIT    0

    HYD. COND. ALONG ROWS is defined by the following parameters:
 HK_1      

    HYD. COND. ALONG ROWS =  3.000000E-04 FOR LAYER   1

  HORIZ. TO VERTICAL ANI. is defined by the following parameters:
 VERT_ANI_1

  HORIZ. TO VERTICAL ANI. =   1.00000     FOR LAYER   1

         SPECIFIC STORAGE is defined by the following parameters:
 SS_1      

         SPECIFIC STORAGE =  2.600000E-05 FOR LAYER   1

 QUASI3D VERT. HYD. COND. is defined by the following parameters:
 VERT_K_CB 

 QUASI3D VERT. HYD. COND. =  1.000000E-07 FOR LAYER   1

    HYD. COND. ALONG ROWS is defined by the following parameters:
 HK_2      


              HYD. COND. ALONG ROWS FOR LAYER   2

          1         2         3         4         5         6         7
          8         9        10        11        12        13        14
         15        16        17        18
 ......................................................................
   1   4.00E-05  4.00E-05  8.00E-05  8.00E-05  1.20E-04  1.20E-04  1.60E-04
       1.60E-04  2.00E-04  2.00E-04  2.40E-04  2.40E-04  2.80E-04  2.80E-04
       3.20E-04  3.20E-04  3.60E-04  3.60E-04
   2   4.00E-05  4.00E-05  8.00E-05  8.00E-05  1.20E-04  1.20E-04  1.60E-04
       1.60E-04  2.00E-04  2.00E-04  2.40E-04  2.40E-04  2.80E-04  2.80E-04
       3.20E-04  3.20E-04  3.60E-04  3.60E-04
   3   4.00E-05  4.00E-05  8.00E-05  8.00E-05  1.20E-04  1.20E-04  1.60E-04
       1.60E-04  2.00E-04  2.00E-04  2.40E-04  2.40E-04  2.80E-04  2.80E-04
       3.20E-04  3.20E-04  3.60E-04  3.60E-04
   4   4.00E-05  4.00E-05  8.00E-05  8.00E-05  1.20E-04  1.20E-04  1.60E-04
       1.60E-04  2.00E-04  2.00E-04  2.40E-04  2.40E-04  2.80E-04  2.80E-04
       3.20E-04  3.20E-04  3.60E-04  3.60E-04
   5   4.00E-05  4.00E-05  8.00E-05  8.00E-05  1.20E-04  1.20E-04  1.60E-04
       1.60E-04  2.00E-04  2.00E-04  2.40E-04  2.40E-04  2.80E-04  2.80E-04
       3.20E-04  3.20E-04  3.60E-04  3.60E-04
   6   4.00E-05  4.00E-05  8.00E-05  8.00E-05  1.20E-04  1.20E-04  1.60E-04
       1.60E-04  2.00E-04  2.00E-04  2.40E-04  2.40E-04  2.80E-04  2.80E-04
       3.20E-04  3.20E-04  3.60E-04  3.60E-04
   7   4.00E-05  4.00E-05  8.00E-05  8.00E-05  1.20E-04  1.20E-04  1.60E-04
       1.60E-04  2.00E-04  2.00E-04  2.40E-04  2.40E-04  2.80E-04  2.80E-04
       3.20E-04  3.20E-04  3.60E-04  3.60E-04
   8   4.00E-05  4.00E-05  8.00E-05  8.00E-05  1.20E-04  1.20E-04  1.60E-04
       1.60E-04  2.00E-04  2.00E-04  2.40E-04  2.40E-04  2.80E-04  2.80E-04
       3.20E-04  3.20E-04  3.60E-04  3.60E-04
   9   4.00E-05  4.00E-05  8.00E-05  8.00E-05  1.20E-04  1.20E-04  1.60E-04
       1.60E-04  2.00E-04  2.00E-04  2.40E-04  2.40E-04  2.80E-04  2.80E-04
       3.20E-04  3.20E-04  3.60E-04  3.60E-04
  10   4.00E-05  4.00E-05  8.00E-05  8.00E-05  1.20E-04  1.20E-04  1.60E-04
       1.60E-04  2.00E-04  2.00E-04  2.40E-04  2.40E-04  2.80E-04  2.80E-04
       3.20E-04  3.20E-04  3.60E-04  3.60E-04
  11   4.00E-05  4.00E-05  8.00E-05  8.00E-05  1.20E-04  1.20E-04  1.60E-04
       1.60E-04  2.00E-04  2.00E-04  2.40E-04  2.40E-04  2.80E-04  2.80E-04
       3.20E-04  3.20E-04  3.60E-04  3.60E-04
  12   4.00E-05  4.00E-05  8.00E-05  8.00E-05  1.20E-04  1.20E-04  1.60E-04
       1.60E-04  2.00E-04  2.00E-04  2.40E-04  2.40E-04  2.80E-04  2.80E-04
       3.20E-04  3.20E-04  3.60E-04  3.60E-04
  13   4.00E-05  4.00E-05  8.00E-05  8.00E-05  1.20E-04  1.20E-04  1.60E-04
       1.60E-04  2.00E-04  2.00E-04  2.40E-04  2.40E-04  2.80E-04  2.80E-04
       3.20E-04  3.20E-04  3.60E-04  3.60E-04
  14   4.00E-05  4.00E-05  8.00E-05  8.00E-05  1.20E-04  1.20E-04  1.60E-04
       1.60E-04  2.00E-04  2.00E-04  2.40E-04  2.40E-04  2.80E-04  2.80E-04
       3.20E-04  3.20E-04  3.60E-04  3.60E-04
  15   4.00E-05  4.00E-05  8.00E-05  8.00E-05  1.20E-04  1.20E-04  1.60E-04
       1.60E-04  2.00E-04  2.00E-04  2.40E-04  2.40E-04  2.80E-04  2.80E-04
       3.20E-04  3.20E-04  3.60E-04  3.60E-04
  16   4.00E-05  4.00E-05  8.00E-05  8.00E-05  1.20E-04  1.20E-04  1.60E-04
       1.60E-04  2.00E-04  2.00E-04  2.40E-04  2.40E-04  2.80E-04  2.80E-04
       3.20E-04  3.20E-04  3.60E-04  3.60E-04
  17   4.00E-05  4.00E-05  8.00E-05  8.00E-05  1.20E-04  1.20E-04  1.60E-04
       1.60E-04  2.00E-04  2.00E-04  2.40E-04  2.40E-04  2.80E-04  2.80E-04
       3.20E-04  3.20E-04  3.60E-04  3.60E-04
  18   4.00E-05  4.00E-05  8.00E-05  8.00E-05  1.20E-04  1.20E-04  1.60E-04
       1.60E-04  2.00E-04  2.00E-04  2.40E-04  2.40E-04  2.80E-04  2.80E-04
       3.20E-04  3.20E-04  3.60E-04  3.60E-04

  HORIZ. TO VERTICAL ANI. is defined by the following parameters:
 VERT_ANI_2

  HORIZ. TO VERTICAL ANI. =   1.00000     FOR LAYER   2

         SPECIFIC STORAGE is defined by the following parameters:
 SS_2      

         SPECIFIC STORAGE =  4.000000E-06 FOR LAYER   2
1
                            STRESS PERIOD NO.    1, LENGTH =   1.000000    
                            -----------------------------------------------

                              NUMBER OF TIME STEPS =     1

                               MULTIPLIER FOR DELT =     1.000

                            INITIAL TIME STEP SIZE =   1.000000    

 WELL NO.  LAYER   ROW   COL   STRESS RATE         
 --------------------------------------------------
      1      1      9     10       0.000    
      2      2      9     10       0.000    

      2 WELLS

 Parameter:  RIVERS
 REACH NO.  LAYER   ROW   COL     STAGE      CONDUCTANCE     BOTTOM EL.         
 -------------------------------------------------------------------------------
      1      1      1      1       100.0           1.200           90.00    
      2      1      2      1       100.0           1.200           90.00    
      3      1      3      1       100.0           1.200           90.00    
      4      1      4      1       100.0           1.200           90.00    
      5      1      5      1       100.0           1.200           90.00    
      6      1      6      1       100.0           1.200           90.00    
      7      1      7      1       100.0           1.200           90.00    
      8      1      8      1       100.0           1.200           90.00    
      9      1      9      1       100.0           1.200           90.00    
     10      1     10      1       100.0           1.200           90.00    
     11      1     11      1       100.0           1.200           90.00    
     12      1     12      1       100.0           1.200           90.00    
     13      1     13      1       100.0           1.200           90.00    
     14      1     14      1       100.0           1.200           90.00    
     15      1     15      1       100.0           1.200           90.00    
     16      1     16      1       100.0           1.200           90.00    
     17      1     17      1       100.0           1.200           90.00    
     18      1     18      1       100.0           1.200           90.00    

     18 RIVER REACHES

 BOUND. NO. LAYER   ROW   COL     STAGE      CONDUCTANCE         
 ----------------------------------------------------------------
      1      1      1     18       350.0          0.1000E-06
      2      1      2     18       350.0          0.1000E-06
      3      1      3     18       350.0          0.1000E-06
      4      1      4     18       350.0          0.1000E-06
      5      1      5     18       350.0          0.1000E-06
      6      1      6     18       350.0          0.1000E-06
      7      1      7     18       350.0          0.1000E-06
      8      1      8     18       350.0          0.1000E-06
      9      1      9     18       350.0          0.1000E-06
     10      1     10     18       350.0          0.1000E-06
     11      1     11     18       350.0          0.1000E-06
     12      1     12     18       350.0          0.1000E-06
     13      1     13     18       350.0          0.1000E-06
     14      1     14     18       350.0          0.1000E-06
     15      1     15     18       350.0          0.1000E-06
     16      1     16     18       350.0          0.1000E-06
     17      1     17     18       350.0          0.1000E-06
     18      1     18     18       350.0          0.1000E-06
     19      2      1     18       350.0          0.1000E-06
     20      2      2     18       350.0          0.1000E-06
     21      2      3     18       350.0          0.1000E-06
     22      2      4     18       350.0          0.1000E-06
     23      2      5     18       350.0          0.1000E-06
     24      2      6     18       350.0          0.1000E-06
     25      2      7     18       350.0          0.1000E-06
     26      2      8     18       350.0          0.1000E-06
     27      2      9     18       350.0          0.1000E-06
     28      2     10     18       350.0          0.1000E-06
     29      2     11     18       350.0          0.1000E-06
     30      2     12     18       350.0          0.1000E-06
     31      2     13     18       350.0          0.1000E-06
     32      2     14     18       350.0          0.1000E-06
     33      2     15     18       350.0          0.1000E-06
     34      2     16     18       350.0          0.1000E-06
     35      2     17     18       350.0          0.1000E-06
     36      2     18     18       350.0          0.1000E-06

     36 GHB CELLS



 RECH array defined by the following parameters:
 Parameter:  RCH_ZONE_1
 Parameter:  RCH_ZONE_2


                           RECHARGE

            1           2           3           4           5           6
            7           8           9          10          11          12
           13          14          15          16          17          18
 ........................................................................
   1   1.9026E-08  1.9026E-08  1.9026E-08  1.9026E-08  1.9026E-08  1.9026E-08
       1.9026E-08  1.9026E-08  1.9026E-08  9.5129E-09  9.5129E-09  9.5129E-09
       9.5129E-09  9.5129E-09  9.5129E-09  9.5129E-09  9.5129E-09  9.5129E-09
   2   1.9026E-08  1.9026E-08  1.9026E-08  1.9026E-08  1.9026E-08  1.9026E-08
       1.9026E-08  1.9026E-08  1.9026E-08  9.5129E-09  9.5129E-09  9.5129E-09
       9.5129E-09  9.5129E-09  9.5129E-09  9.5129E-09  9.5129E-09  9.5129E-09
   3   1.9026E-08  1.9026E-08  1.9026E-08  1.9026E-08  1.9026E-08  1.9026E-08
       1.9026E-08  1.9026E-08  1.9026E-08  9.5129E-09  9.5129E-09  9.5129E-09
       9.5129E-09  9.5129E-09  9.5129E-09  9.5129E-09  9.5129E-09  9.5129E-09
   4   1.9026E-08  1.9026E-08  1.9026E-08  1.9026E-08  1.9026E-08  1.9026E-08
       1.9026E-08  1.9026E-08  1.9026E-08  9.5129E-09  9.5129E-09  9.5129E-09
       9.5129E-09  9.5129E-09  9.5129E-09  9.5129E-09  9.5129E-09  9.5129E-09
   5   1.9026E-08  1.9026E-08  1.9026E-08  1.9026E-08  1.9026E-08  1.9026E-08
       1.9026E-08  1.9026E-08  1.9026E-08  9.5129E-09  9.5129E-09  9.5129E-09
       9.5129E-09  9.5129E-09  9.5129E-09  9.5129E-09  9.5129E-09  9.5129E-09
   6   1.9026E-08  1.9026E-08  1.9026E-08  1.9026E-08  1.9026E-08  1.9026E-08
       1.9026E-08  1.9026E-08  1.9026E-08  9.5129E-09  9.5129E-09  9.5129E-09
       9.5129E-09  9.5129E-09  9.5129E-09  9.5129E-09  9.5129E-09  9.5129E-09
   7   1.9026E-08  1.9026E-08  1.9026E-08  1.9026E-08  1.9026E-08  1.9026E-08
       1.9026E-08  1.9026E-08  1.9026E-08  9.5129E-09  9.5129E-09  9.5129E-09
       9.5129E-09  9.5129E-09  9.5129E-09  9.5129E-09  9.5129E-09  9.5129E-09
   8   1.9026E-08  1.9026E-08  1.9026E-08  1.9026E-08  1.9026E-08  1.9026E-08
       1.9026E-08  1.9026E-08  1.9026E-08  9.5129E-09  9.5129E-09  9.5129E-09
       9.5129E-09  9.5129E-09  9.5129E-09  9.5129E-09  9.5129E-09  9.5129E-09
   9   1.9026E-08  1.9026E-08  1.9026E-08  1.9026E-08  1.9026E-08  1.9026E-08
       1.9026E-08  1.9026E-08  1.9026E-08  9.5129E-09  9.5129E-09  9.5129E-09
       9.5129E-09  9.5129E-09  9.5129E-09  9.5129E-09  9.5129E-09  9.5129E-09
  10   1.9026E-08  1.9026E-08  1.9026E-08  1.9026E-08  1.9026E-08  1.9026E-08
       1.9026E-08  1.9026E-08  1.9026E-08  9.5129E-09  9.5129E-09  9.5129E-09
       9.5129E-09  9.5129E-09  9.5129E-09  9.5129E-09  9.5129E-09  9.5129E-09
  11   1.9026E-08  1.9026E-08  1.9026E-08  1.9026E-08  1.9026E-08  1.9026E-08
       1.9026E-08  1.9026E-08  1.9026E-08  9.5129E-09  9.5129E-09  9.5129E-09
       9.5129E-09  9.5129E-09  9.5129E-09  9.5129E-09  9.5129E-09  9.5129E-09
  12   1.9026E-08  1.9026E-08  1.9026E-08  1.9026E-08  1.9026E-08  1.9026E-08
       1.9026E-08  1.9026E-08  1.9026E-08  9.5129E-09  9.5129E-09  9.5129E-09
       9.5129E-09  9.5129E-09  9.5129E-09  9.5129E-09  9.5129E-09  9.5129E-09
  13   1.9026E-08  1.9026E-08  1.9026E-08  1.9026E-08  1.9026E-08  1.9026E-08
       1.9026E-08  1.9026E-08  1.9026E-08  9.5129E-09  9.5129E-09  9.5129E-09
       9.5129E-09  9.5129E-09  9.5129E-09  9.5129E-09  9.5129E-09  9.5129E-09
  14   1.9026E-08  1.9026E-08  1.9026E-08  1.9026E-08  1.9026E-08  1.9026E-08
       1.9026E-08  1.9026E-08  1.9026E-08  9.5129E-09  9.5129E-09  9.5129E-09
       9.5129E-09  9.5129E-09  9.5129E-09  9.5129E-09  9.5129E-09  9.5129E-09
  15   1.9026E-08  1.9026E-08  1.9026E-08  1.9026E-08  1.9026E-08  1.9026E-08
       1.9026E-08  1.9026E-08  1.9026E-08  9.5129E-09  9.5129E-09  9.5129E-09
       9.5129E-09  9.5129E-09  9.5129E-09  9.5129E-09  9.5129E-09  9.5129E-09
  16   1.9026E-08  1.9026E-08  1.9026E-08  1.9026E-08  1.9026E-08  1.9026E-08
       1.9026E-08  1.9026E-08  1.9026E-08  9.5129E-09  9.5129E-09  9.5129E-09
       9.5129E-09  9.5129E-09  9.5129E-09  9.5129E-09  9.5129E-09  9.5129E-09
  17   1.9026E-08  1.9026E-08  1.9026E-08  1.9026E-08  1.9026E-08  1.9026E-08
       1.9026E-08  1.9026E-08  1.9026E-08  9.5129E-09  9.5129E-09  9.5129E-09
       9.5129E-09  9.5129E-09  9.5129E-09  9.5129E-09  9.5129E-09  9.5129E-09
  18   1.9026E-08  1.9026E-08  1.9026E-08  1.9026E-08  1.9026E-08  1.9026E-08
       1.9026E-08  1.9026E-08  1.9026E-08  9.5129E-09  9.5129E-09  9.5129E-09
       9.5129E-09  9.5129E-09  9.5129E-09  9.5129E-09  9.5129E-09  9.5129E-09
 
 SOLVING FOR HEAD 

     324 UPPER PART EQS.       324 LOWER PART EQS.    BAND WIDTH + 1 =   37

     3 INTERNAL ITERATIONS FOR TIME STEP   1 IN STRESS PERIOD    1

 OUTPUT CONTROL FOR STRESS PERIOD    1   TIME STEP   1
    PRINT HEAD FOR LAYERS:   1
    PRINT BUDGET
1
              HEAD IN LAYER   1 AT END OF TIME STEP   1 IN STRESS PERIOD    1
  ---------------------------------------------------------------------------

          1      2      3      4      5      6      7      8      9     10
         11     12     13     14     15     16     17     18
 .........................................................................
   1   100.2  114.4  126.8  137.4  146.6  154.4  160.9  166.3  170.7  174.1
       177.1  179.5  181.6  183.3  184.6  185.5  186.1  186.4
   2   100.2  114.4  126.8  137.4  146.6  154.4  160.9  166.3  170.7  174.1
       177.1  179.5  181.6  183.3  184.6  185.5  186.1  186.4
   3   100.2  114.4  126.8  137.4  146.6  154.4  160.9  166.3  170.7  174.1
       177.1  179.5  181.6  183.3  184.6  185.5  186.1  186.4
   4   100.2  114.4  126.8  137.4  146.6  154.4  160.9  166.3  170.7  174.1
       177.1  179.5  181.6  183.3  184.6  185.5  186.1  186.4
   5   100.2  114.4  126.8  137.4  146.6  154.4  160.9  166.3  170.7  174.1
       177.1  179.5  181.6  183.3  184.6  185.5  186.1  186.4
   6   100.2  114.4  126.8  137.4  146.6  154.4  160.9  166.3  170.7  174.1
       177.1  179.5  181.6  183.3  184.6  185.5  186.1  186.4
   7   100.2  114.4  126.8  137.4  146.6  154.4  160.9  166.3  170.7  174.1
       177.1  179.5  181.6  183.3  184.6  185.5  186.1  186.4
   8   100.2  114.4  126.8  137.4  146.6  154.4  160.9  166.3  170.7  174.1
       177.1  179.5  181.6  183.3  184.6  185.5  186.1  186.4
   9   100.2  114.4  126.8  137.4  146.6  154.4  160.9  166.3  170.7  174.1
       177.1  179.5  181.6  183.3  184.6  185.5  186.1  186.4
  10   100.2  114.4  126.8  137.4  146.6  154.4  160.9  166.3  170.7  174.1
       177.1  179.5  181.6  183.3  184.6  185.5  186.1  186.4
  11   100.2  114.4  126.8  137.4  146.6  154.4  160.9  166.3  170.7  174.1
       177.1  179.5  181.6  183.3  184.6  185.5  186.1  186.4
  12   100.2  114.4  126.8  137.4  146.6  154.4  160.9  166.3  170.7  174.1
       177.1  179.5  181.6  183.3  184.6  185.5  186.1  186.4
  13   100.2  114.4  126.8  137.4  146.6  154.4  160.9  166.3  170.7  174.1
       177.1  179.5  181.6  183.3  184.6  185.5  186.1  186.4
  14   100.2  114.4  126.8  137.4  146.6  154.4  160.9  166.3  170.7  174.1
       177.1  179.5  181.6  183.3  184.6  185.5  186.1  186.4
  15   100.2  114.4  126.8  137.4  146.6  154.4  160.9  166.3  170.7  174.1
       177.1  179.5  181.6  183.3  184.6  185.5  186.1  186.4
  16   100.2  114.4  126.8  137.4  146.6  154.4  160.9  166.3  170.7  174.1
       177.1  179.5  181.6  183.3  184.6  185.5  186.1  186.4
  17   100.2  114.4  126.8  137.4  146.6  154.4  160.9  166.3  170.7  174.1
       177.1  179.5  181.6  183.3  184.6  185.5  186.1  186.4
  18   100.2  114.4  126.8  137.4  146.6  154.4  160.9  166.3  170.7  174.1
       177.1  179.5  181.6  183.3  184.6  185.5  186.1  186.4
1
  VOLUMETRIC BUDGET FOR ENTIRE MODEL AT END OF TIME STEP  1 IN STRESS PERIOD   1
  ------------------------------------------------------------------------------

     CUMULATIVE VOLUMES      L**3       RATES FOR THIS TIME STEP      L**3/T
     ------------------                 ------------------------

           IN:                                      IN:
           ---                                      ---
             STORAGE =           0.0000               STORAGE =           0.0000
       CONSTANT HEAD =           0.0000         CONSTANT HEAD =           0.0000
               WELLS =           0.0000                 WELLS =           0.0000
       RIVER LEAKAGE =           0.0000         RIVER LEAKAGE =           0.0000
     HEAD DEP BOUNDS =       5.8984E-04       HEAD DEP BOUNDS =       5.8984E-04
            RECHARGE =           4.6233              RECHARGE =           4.6233

            TOTAL IN =           4.6239              TOTAL IN =           4.6239

          OUT:                                     OUT:
          ----                                     ----
             STORAGE =           0.0000               STORAGE =           0.0000
       CONSTANT HEAD =           0.0000         CONSTANT HEAD =           0.0000
               WELLS =           0.0000                 WELLS =           0.0000
       RIVER LEAKAGE =           4.6240         RIVER LEAKAGE =           4.6240
     HEAD DEP BOUNDS =           0.0000       HEAD DEP BOUNDS =           0.0000
            RECHARGE =           0.0000              RECHARGE =           0.0000

           TOTAL OUT =           4.6240             TOTAL OUT =           4.6240

            IN - OUT =      -8.4409E-05              IN - OUT =      -8.4409E-05

 PERCENT DISCREPANCY =           0.00     PERCENT DISCREPANCY =           0.00






          TIME SUMMARY AT END OF TIME STEP   1 IN STRESS PERIOD    1
                    SECONDS     MINUTES      HOURS       DAYS        YEARS
                    -----------------------------------------------------------
   TIME STEP LENGTH  1.0000     1.66667E-02 2.77778E-04 1.15741E-05 3.16881E-08
 STRESS PERIOD TIME  1.0000     1.66667E-02 2.77778E-04 1.15741E-05 3.16881E-08
         TOTAL TIME  1.0000     1.66667E-02 2.77778E-04 1.15741E-05 3.16881E-08
1
 
 SOLVING PARAMETER SENSITIVITY FOR WELLS_TR  
 SUM OF POSITIVE RATES= 0.00000E+00    SUM OF NEGATIVE RATES= 0.00000E+00

 ONE-PERCENT SCALED SENSITIVITIES FOR PARAMETER "WELLS_TR  ", SCALED BY *B/100.


 FOR TIME STEP    1 ALL VALUES ARE 0.0

1
                            STRESS PERIOD NO.    2, LENGTH =   87162.00    
                            -----------------------------------------------

                              NUMBER OF TIME STEPS =     1

                               MULTIPLIER FOR DELT =     1.000

                            INITIAL TIME STEP SIZE =   87162.00    

 Parameter:  WELLS_TR
 WELL NO.  LAYER   ROW   COL   STRESS RATE         
 --------------------------------------------------
      1      1      9     10      -1.100    
      2      2      9     10      -1.100    

      2 WELLS

 Parameter:  RIVERS
 REACH NO.  LAYER   ROW   COL     STAGE      CONDUCTANCE     BOTTOM EL.         
 -------------------------------------------------------------------------------
      1      1      1      1       100.0           1.200           90.00    
      2      1      2      1       100.0           1.200           90.00    
      3      1      3      1       100.0           1.200           90.00    
      4      1      4      1       100.0           1.200           90.00    
      5      1      5      1       100.0           1.200           90.00    
      6      1      6      1       100.0           1.200           90.00    
      7      1      7      1       100.0           1.200           90.00    
      8      1      8      1       100.0           1.200           90.00    
      9      1      9      1       100.0           1.200           90.00    
     10      1     10      1       100.0           1.200           90.00    
     11      1     11      1       100.0           1.200           90.00    
     12      1     12      1       100.0           1.200           90.00    
     13      1     13      1       100.0           1.200           90.00    
     14      1     14      1       100.0           1.200           90.00    
     15      1     15      1       100.0           1.200           90.00    
     16      1     16      1       100.0           1.200           90.00    
     17      1     17      1       100.0           1.200           90.00    
     18      1     18      1       100.0           1.200           90.00    

     18 RIVER REACHES

 REUSING NON-PARAMETER GHB CELLS FROM LAST STRESS PERIOD

     36 GHB CELLS

 REUSING RECH FROM LAST STRESS PERIOD
 
 SOLVING FOR HEAD 

     2 INTERNAL ITERATIONS FOR TIME STEP   1 IN STRESS PERIOD    2

 NO OUTPUT CONTROL FOR STRESS PERIOD    2   TIME STEP   1
1
  VOLUMETRIC BUDGET FOR ENTIRE MODEL AT END OF TIME STEP  1 IN STRESS PERIOD   2
  ------------------------------------------------------------------------------

     CUMULATIVE VOLUMES      L**3       RATES FOR THIS TIME STEP      L**3/T
     ------------------                 ------------------------

           IN:                                      IN:
           ---                                      ---
             STORAGE =      191685.5780               STORAGE =           2.1992
       CONSTANT HEAD =           0.0000         CONSTANT HEAD =           0.0000
               WELLS =           0.0000                 WELLS =           0.0000
       RIVER LEAKAGE =           0.0000         RIVER LEAKAGE =           0.0000
     HEAD DEP BOUNDS =          51.4183       HEAD DEP BOUNDS =       5.8991E-04
            RECHARGE =      402979.5940              RECHARGE =           4.6233

            TOTAL IN =      594716.5620              TOTAL IN =           6.8231

          OUT:                                     OUT:
          ----                                     ----
             STORAGE =           0.0000               STORAGE =           0.0000
       CONSTANT HEAD =           0.0000         CONSTANT HEAD =           0.0000
               WELLS =      191756.4060                 WELLS =           2.2000
       RIVER LEAKAGE =      402965.1880         RIVER LEAKAGE =           4.6231
     HEAD DEP BOUNDS =           0.0000       HEAD DEP BOUNDS =           0.0000
            RECHARGE =           0.0000              RECHARGE =           0.0000

           TOTAL OUT =      594721.6250             TOTAL OUT =           6.8231

            IN - OUT =          -5.0036              IN - OUT =      -5.7635E-05

 PERCENT DISCREPANCY =           0.00     PERCENT DISCREPANCY =           0.00






          TIME SUMMARY AT END OF TIME STEP   1 IN STRESS PERIOD    2
                    SECONDS     MINUTES      HOURS       DAYS        YEARS
                    -----------------------------------------------------------
   TIME STEP LENGTH  87162.      1452.7      24.212      1.0088     2.76200E-03
 STRESS PERIOD TIME  87162.      1452.7      24.212      1.0088     2.76200E-03
         TOTAL TIME  87163.      1452.7      24.212      1.0088     2.76203E-03
1
 
 SOLVING PARAMETER SENSITIVITY FOR WELLS_TR  
 SUM OF POSITIVE RATES= 2.00000E+00    SUM OF NEGATIVE RATES= 2.00000E+00
               PERCENT DISCREPANCY=    0.00
1
                            STRESS PERIOD NO.    3, LENGTH =   261486.0    
                            -----------------------------------------------

                              NUMBER OF TIME STEPS =     1

                               MULTIPLIER FOR DELT =     1.000

                            INITIAL TIME STEP SIZE =   261486.0    

 Parameter:  WELLS_TR
 WELL NO.  LAYER   ROW   COL   STRESS RATE         
 --------------------------------------------------
      1      1      9     10      -1.100    
      2      2      9     10      -1.100    

      2 WELLS

 Parameter:  RIVERS
 REACH NO.  LAYER   ROW   COL     STAGE      CONDUCTANCE     BOTTOM EL.         
 -------------------------------------------------------------------------------
      1      1      1      1       100.0           1.200           90.00    
      2      1      2      1       100.0           1.200           90.00    
      3      1      3      1       100.0           1.200           90.00    
      4      1      4      1       100.0           1.200           90.00    
      5      1      5      1       100.0           1.200           90.00    
      6      1      6      1       100.0           1.200           90.00    
      7      1      7      1       100.0           1.200           90.00    
      8      1      8      1       100.0           1.200           90.00    
      9      1      9      1       100.0           1.200           90.00    
     10      1     10      1       100.0           1.200           90.00    
     11      1     11      1       100.0           1.200           90.00    
     12      1     12      1       100.0           1.200           90.00    
     13      1     13      1       100.0           1.200           90.00    
     14      1     14      1       100.0           1.200           90.00    
     15      1     15      1       100.0           1.200           90.00    
     16      1     16      1       100.0           1.200           90.00    
     17      1     17      1       100.0           1.200           90.00    
     18      1     18      1       100.0           1.200           90.00    

     18 RIVER REACHES

 REUSING NON-PARAMETER GHB CELLS FROM LAST STRESS PERIOD

     36 GHB CELLS

 REUSING RECH FROM LAST STRESS PERIOD
 
 SOLVING FOR HEAD 

     2 INTERNAL ITERATIONS FOR TIME STEP   1 IN STRESS PERIOD    3

 NO OUTPUT CONTROL FOR STRESS PERIOD    3   TIME STEP   1
1
  VOLUMETRIC BUDGET FOR ENTIRE MODEL AT END OF TIME STEP  1 IN STRESS PERIOD   3
  ------------------------------------------------------------------------------

     CUMULATIVE VOLUMES      L**3       RATES FOR THIS TIME STEP      L**3/T
     ------------------                 ------------------------

           IN:                                      IN:
           ---                                      ---
             STORAGE =      759753.4380               STORAGE =           2.1725
       CONSTANT HEAD =           0.0000         CONSTANT HEAD =           0.0000
               WELLS =           0.0000                 WELLS =           0.0000
       RIVER LEAKAGE =           0.0000         RIVER LEAKAGE =           0.0000
     HEAD DEP BOUNDS =         206.0338       HEAD DEP BOUNDS =       5.9130E-04
            RECHARGE =     1611904.5000              RECHARGE =           4.6233

            TOTAL IN =     2371864.0000              TOTAL IN =           6.7963

          OUT:                                     OUT:
          ----                                     ----
             STORAGE =           0.0000               STORAGE =           0.0000
       CONSTANT HEAD =           0.0000         CONSTANT HEAD =           0.0000
               WELLS =      767025.6250                 WELLS =           2.2000
       RIVER LEAKAGE =     1604843.3800         RIVER LEAKAGE =           4.5963
     HEAD DEP BOUNDS =           0.0000       HEAD DEP BOUNDS =           0.0000
            RECHARGE =           0.0000              RECHARGE =           0.0000

           TOTAL OUT =     2371869.0000             TOTAL OUT =           6.7963

            IN - OUT =          -5.0287              IN - OUT =      -4.5932E-07

 PERCENT DISCREPANCY =           0.00     PERCENT DISCREPANCY =           0.00






          TIME SUMMARY AT END OF TIME STEP   1 IN STRESS PERIOD    3
                    SECONDS     MINUTES      HOURS       DAYS        YEARS
                    -----------------------------------------------------------
   TIME STEP LENGTH 2.61486E+05  4358.1      72.635      3.0265     8.28599E-03
 STRESS PERIOD TIME 2.61486E+05  4358.1      72.635      3.0265     8.28599E-03
         TOTAL TIME 3.48649E+05  5810.8      96.847      4.0353     1.10480E-02
1
 
 SOLVING PARAMETER SENSITIVITY FOR WELLS_TR  
 SUM OF POSITIVE RATES= 2.66642E+00    SUM OF NEGATIVE RATES= 2.66642E+00
               PERCENT DISCREPANCY=    0.00
1
                            STRESS PERIOD NO.    4, LENGTH =   522972.0    
                            -----------------------------------------------

                              NUMBER OF TIME STEPS =     1

                               MULTIPLIER FOR DELT =     1.000

                            INITIAL TIME STEP SIZE =   522972.0    

 Parameter:  WELLS_TR
 WELL NO.  LAYER   ROW   COL   STRESS RATE         
 --------------------------------------------------
      1      1      9     10      -1.100    
      2      2      9     10      -1.100    

      2 WELLS

 Parameter:  RIVERS
 REACH NO.  LAYER   ROW   COL     STAGE      CONDUCTANCE     BOTTOM EL.         
 -------------------------------------------------------------------------------
      1      1      1      1       100.0           1.200           90.00    
      2      1      2      1       100.0           1.200           90.00    
      3      1      3      1       100.0           1.200           90.00    
      4      1      4      1       100.0           1.200           90.00    
      5      1      5      1       100.0           1.200           90.00    
      6      1      6      1       100.0           1.200           90.00    
      7      1      7      1       100.0           1.200           90.00    
      8      1      8      1       100.0           1.200           90.00    
      9      1      9      1       100.0           1.200           90.00    
     10      1     10      1       100.0           1.200           90.00    
     11      1     11      1       100.0           1.200           90.00    
     12      1     12      1       100.0           1.200           90.00    
     13      1     13      1       100.0           1.200           90.00    
     14      1     14      1       100.0           1.200           90.00    
     15      1     15      1       100.0           1.200           90.00    
     16      1     16      1       100.0           1.200           90.00    
     17      1     17      1       100.0           1.200           90.00    
     18      1     18      1       100.0           1.200           90.00    

     18 RIVER REACHES

 REUSING NON-PARAMETER GHB CELLS FROM LAST STRESS PERIOD

     36 GHB CELLS

 REUSING RECH FROM LAST STRESS PERIOD
 
 SOLVING FOR HEAD 

     2 INTERNAL ITERATIONS FOR TIME STEP   1 IN STRESS PERIOD    4

 NO OUTPUT CONTROL FOR STRESS PERIOD    4   TIME STEP   1
1
  VOLUMETRIC BUDGET FOR ENTIRE MODEL AT END OF TIME STEP  1 IN STRESS PERIOD   4
  ------------------------------------------------------------------------------

     CUMULATIVE VOLUMES      L**3       RATES FOR THIS TIME STEP      L**3/T
     ------------------                 ------------------------

           IN:                                      IN:
           ---                                      ---
             STORAGE =     1835825.1200               STORAGE =           2.0576
       CONSTANT HEAD =           0.0000         CONSTANT HEAD =           0.0000
               WELLS =           0.0000                 WELLS =           0.0000
       RIVER LEAKAGE =           0.0000         RIVER LEAKAGE =           0.0000
     HEAD DEP BOUNDS =         518.4528       HEAD DEP BOUNDS =       5.9739E-04
            RECHARGE =     4029754.2500              RECHARGE =           4.6233

            TOTAL IN =     5866098.0000              TOTAL IN =           6.6815

          OUT:                                     OUT:
          ----                                     ----
             STORAGE =           0.0000               STORAGE =           0.0000
       CONSTANT HEAD =           0.0000         CONSTANT HEAD =           0.0000
               WELLS =     1917564.0000                 WELLS =           2.2000
       RIVER LEAKAGE =     3948588.7500         RIVER LEAKAGE =           4.4816
     HEAD DEP BOUNDS =           0.0000       HEAD DEP BOUNDS =           0.0000
            RECHARGE =           0.0000              RECHARGE =           0.0000

           TOTAL OUT =     5866153.0000             TOTAL OUT =           6.6816

            IN - OUT =         -54.9222              IN - OUT =      -9.5691E-05

 PERCENT DISCREPANCY =           0.00     PERCENT DISCREPANCY =           0.00






          TIME SUMMARY AT END OF TIME STEP   1 IN STRESS PERIOD    4
                    SECONDS     MINUTES      HOURS       DAYS        YEARS
                    -----------------------------------------------------------
   TIME STEP LENGTH 5.22972E+05  8716.2      145.27      6.0529     1.65720E-02
 STRESS PERIOD TIME 5.22972E+05  8716.2      145.27      6.0529     1.65720E-02
         TOTAL TIME 8.71621E+05  14527.      242.12      10.088     2.76200E-02
1
 
 SOLVING PARAMETER SENSITIVITY FOR WELLS_TR  
 SUM OF POSITIVE RATES= 3.32069E+00    SUM OF NEGATIVE RATES= 3.32069E+00
               PERCENT DISCREPANCY=    0.00
1
                            STRESS PERIOD NO.    5, LENGTH =  0.2356745E+08
                            -----------------------------------------------

                              NUMBER OF TIME STEPS =     9

                               MULTIPLIER FOR DELT =     1.200

                            INITIAL TIME STEP SIZE =   1133110.    

 Parameter:  WELLS_TR
 WELL NO.  LAYER   ROW   COL   STRESS RATE         
 --------------------------------------------------
      1      1      9     10      -1.100    
      2      2      9     10      -1.100    

      2 WELLS

 Parameter:  RIVERS
 REACH NO.  LAYER   ROW   COL     STAGE      CONDUCTANCE     BOTTOM EL.         
 -------------------------------------------------------------------------------
      1      1      1      1       100.0           1.200           90.00    
      2      1      2      1       100.0           1.200           90.00    
      3      1      3      1       100.0           1.200           90.00    
      4      1      4      1       100.0           1.200           90.00    
      5      1      5      1       100.0           1.200           90.00    
      6      1      6      1       100.0           1.200           90.00    
      7      1      7      1       100.0           1.200           90.00    
      8      1      8      1       100.0           1.200           90.00    
      9      1      9      1       100.0           1.200           90.00    
     10      1     10      1       100.0           1.200           90.00    
     11      1     11      1       100.0           1.200           90.00    
     12      1     12      1       100.0           1.200           90.00    
     13      1     13      1       100.0           1.200           90.00    
     14      1     14      1       100.0           1.200           90.00    
     15      1     15      1       100.0           1.200           90.00    
     16      1     16      1       100.0           1.200           90.00    
     17      1     17      1       100.0           1.200           90.00    
     18      1     18      1       100.0           1.200           90.00    

     18 RIVER REACHES

 REUSING NON-PARAMETER GHB CELLS FROM LAST STRESS PERIOD

     36 GHB CELLS

 REUSING RECH FROM LAST STRESS PERIOD
 
 SOLVING FOR HEAD 

     2 INTERNAL ITERATIONS FOR TIME STEP   1 IN STRESS PERIOD    5

 NO OUTPUT CONTROL FOR STRESS PERIOD    5   TIME STEP   1
 
 SOLVING PARAMETER SENSITIVITY FOR WELLS_TR  
 SUM OF POSITIVE RATES= 3.47287E+00    SUM OF NEGATIVE RATES= 3.47287E+00
               PERCENT DISCREPANCY=    0.00
 
 SOLVING FOR HEAD 
     2 INTERNAL ITERATIONS FOR TIME STEP   2 IN STRESS PERIOD    5

 NO OUTPUT CONTROL FOR STRESS PERIOD    5   TIME STEP   2
 
 SOLVING PARAMETER SENSITIVITY FOR WELLS_TR  
 SUM OF POSITIVE RATES= 4.58470E+00    SUM OF NEGATIVE RATES= 4.58470E+00
               PERCENT DISCREPANCY=    0.00
 
 SOLVING FOR HEAD 
     2 INTERNAL ITERATIONS FOR TIME STEP   3 IN STRESS PERIOD    5

 NO OUTPUT CONTROL FOR STRESS PERIOD    5   TIME STEP   3
 
 SOLVING PARAMETER SENSITIVITY FOR WELLS_TR  
 SUM OF POSITIVE RATES= 5.31170E+00    SUM OF NEGATIVE RATES= 5.31170E+00
               PERCENT DISCREPANCY=    0.00
 
 SOLVING FOR HEAD 
     2 INTERNAL ITERATIONS FOR TIME STEP   4 IN STRESS PERIOD    5

 NO OUTPUT CONTROL FOR STRESS PERIOD    5   TIME STEP   4
 
 SOLVING PARAMETER SENSITIVITY FOR WELLS_TR  
 SUM OF POSITIVE RATES= 5.72874E+00    SUM OF NEGATIVE RATES= 5.72874E+00
               PERCENT DISCREPANCY=    0.00
 
 SOLVING FOR HEAD 
     2 INTERNAL ITERATIONS FOR TIME STEP   5 IN STRESS PERIOD    5

 NO OUTPUT CONTROL FOR STRESS PERIOD    5   TIME STEP   5
 
 SOLVING PARAMETER SENSITIVITY FOR WELLS_TR  
 SUM OF POSITIVE RATES= 5.89826E+00    SUM OF NEGATIVE RATES= 5.89826E+00
               PERCENT DISCREPANCY=    0.00
 
 SOLVING FOR HEAD 
     2 INTERNAL ITERATIONS FOR TIME STEP   6 IN STRESS PERIOD    5

 NO OUTPUT CONTROL FOR STRESS PERIOD    5   TIME STEP   6
 
 SOLVING PARAMETER SENSITIVITY FOR WELLS_TR  
 SUM OF POSITIVE RATES= 5.87368E+00    SUM OF NEGATIVE RATES= 5.87368E+00
               PERCENT DISCREPANCY=    0.00
 
 SOLVING FOR HEAD 
     2 INTERNAL ITERATIONS FOR TIME STEP   7 IN STRESS PERIOD    5

 NO OUTPUT CONTROL FOR STRESS PERIOD    5   TIME STEP   7
 
 SOLVING PARAMETER SENSITIVITY FOR WELLS_TR  
 SUM OF POSITIVE RATES= 5.70300E+00    SUM OF NEGATIVE RATES= 5.70300E+00
               PERCENT DISCREPANCY=    0.00
 
 SOLVING FOR HEAD 
     2 INTERNAL ITERATIONS FOR TIME STEP   8 IN STRESS PERIOD    5

 NO OUTPUT CONTROL FOR STRESS PERIOD    5   TIME STEP   8
 
 SOLVING PARAMETER SENSITIVITY FOR WELLS_TR  
 SUM OF POSITIVE RATES= 5.43035E+00    SUM OF NEGATIVE RATES= 5.43035E+00
               PERCENT DISCREPANCY=    0.00
 
 SOLVING FOR HEAD 
     2 INTERNAL ITERATIONS FOR TIME STEP   9 IN STRESS PERIOD    5

 OUTPUT CONTROL FOR STRESS PERIOD    5   TIME STEP   9
    PRINT HEAD FOR LAYERS:   1
    PRINT BUDGET
1
              HEAD IN LAYER   1 AT END OF TIME STEP   9 IN STRESS PERIOD    5
  ---------------------------------------------------------------------------

          1      2      3      4      5      6      7      8      9     10
         11     12     13     14     15     16     17     18
 .........................................................................
   1   100.1  108.0  114.4  119.5  123.6  126.7  129.1  130.9  132.1  132.9
       133.8  134.8  135.7  136.5  137.3  137.9  138.3  138.5
   2   100.1  107.9  114.3  119.4  123.4  126.4  128.8  130.5  131.7  132.5
       133.4  134.4  135.4  136.3  137.1  137.7  138.1  138.3
   3   100.1  107.8  114.1  119.1  122.9  125.9  128.0  129.6  130.7  131.5
       132.5  133.6  134.7  135.8  136.7  137.4  137.9  138.1
   4   100.1  107.7  113.8  118.6  122.3  125.0  127.0  128.3  129.2  129.9
       131.0  132.3  133.7  135.0  136.1  136.9  137.5  137.8
   5   100.1  107.6  113.5  118.1  121.6  124.0  125.5  126.4  127.0  127.6
       128.9  130.6  132.4  134.0  135.4  136.4  137.1  137.5
   6   100.1  107.4  113.2  117.6  120.7  122.7  123.8  124.1  124.0  124.2
       125.9  128.3  130.8  132.9  134.6  135.9  136.7  137.1
   7   100.1  107.3  112.9  117.1  120.0  121.5  121.9  121.2  119.8  119.0
       121.8  125.6  129.1  131.8  133.9  135.4  136.4  136.8
   8   100.1  107.2  112.7  116.7  119.4  120.6  120.2  118.2  114.3  110.0
       116.5  122.8  127.6  131.0  133.5  135.1  136.2  136.7
   9   100.1  107.1  112.7  116.7  119.2  120.2  119.5  116.3  108.9   90.6
       111.2  121.1  126.9  130.7  133.4  135.1  136.2  136.7
  10   100.1  107.2  112.8  116.9  119.5  120.7  120.4  118.4  114.5  110.2
       116.7  123.0  127.8  131.2  133.7  135.4  136.4  136.9
  11   100.1  107.3  113.1  117.3  120.2  121.9  122.3  121.6  120.2  119.5
       122.3  126.1  129.5  132.3  134.4  135.9  136.8  137.3
  12   100.1  107.5  113.4  117.9  121.1  123.2  124.3  124.7  124.6  124.9
       126.6  129.1  131.5  133.6  135.3  136.6  137.4  137.8
  13   100.1  107.7  113.8  118.6  122.1  124.6  126.3  127.3  127.9  128.5
       129.8  131.5  133.3  135.0  136.3  137.4  138.0  138.4
  14   100.1  107.9  114.2  119.2  123.0  125.9  127.9  129.3  130.4  131.1
       132.2  133.5  134.9  136.2  137.3  138.1  138.7  138.9
  15   100.1  108.1  114.6  119.8  123.8  126.9  129.2  130.9  132.1  133.0
       134.0  135.1  136.2  137.2  138.1  138.8  139.2  139.5
  16   100.1  108.2  114.9  120.2  124.4  127.7  130.2  132.1  133.4  134.2
       135.2  136.2  137.1  138.0  138.7  139.3  139.7  139.9
  17   100.1  108.3  115.1  120.5  124.9  128.2  130.8  132.8  134.2  135.1
       136.0  136.9  137.7  138.5  139.2  139.7  140.0  140.2
  18   100.1  108.4  115.2  120.7  125.1  128.5  131.2  133.2  134.6  135.5
       136.3  137.2  138.0  138.8  139.4  139.9  140.2  140.4
1
  VOLUMETRIC BUDGET FOR ENTIRE MODEL AT END OF TIME STEP  9 IN STRESS PERIOD   5
  ------------------------------------------------------------------------------

     CUMULATIVE VOLUMES      L**3       RATES FOR THIS TIME STEP      L**3/T
     ------------------                 ------------------------

           IN:                                      IN:
           ---                                      ---
             STORAGE =    17576854.0000               STORAGE =           0.2025
       CONSTANT HEAD =           0.0000         CONSTANT HEAD =           0.0000
               WELLS =           0.0000                 WELLS =           0.0000
       RIVER LEAKAGE =           0.0000         RIVER LEAKAGE =           0.0000
     HEAD DEP BOUNDS =       17444.3926       HEAD DEP BOUNDS =       7.6361E-04
            RECHARGE =   112988888.0000              RECHARGE =           4.6233

            TOTAL IN =   130583184.0000              TOTAL IN =           4.8265

          OUT:                                     OUT:
          ----                                     ----
             STORAGE =           0.0000               STORAGE =           0.0000
       CONSTANT HEAD =           0.0000         CONSTANT HEAD =           0.0000
               WELLS =    53765968.0000                 WELLS =           2.2000
       RIVER LEAKAGE =    76818256.0000         RIVER LEAKAGE =           2.6266
     HEAD DEP BOUNDS =           0.0000       HEAD DEP BOUNDS =           0.0000
            RECHARGE =           0.0000              RECHARGE =           0.0000

           TOTAL OUT =   130584224.0000             TOTAL OUT =           4.8266

            IN - OUT =       -1037.6074              IN - OUT =      -7.3049E-05

 PERCENT DISCREPANCY =           0.00     PERCENT DISCREPANCY =           0.00






          TIME SUMMARY AT END OF TIME STEP   9 IN STRESS PERIOD    5
                    SECONDS     MINUTES      HOURS       DAYS        YEARS
                    -----------------------------------------------------------
   TIME STEP LENGTH 4.87217E+06  81203.      1353.4      56.391     0.15439    
 STRESS PERIOD TIME 2.35675E+07 3.92791E+05  6546.5      272.77     0.74681    
         TOTAL TIME 2.44391E+07 4.07318E+05  6788.6      282.86     0.77443    
1

 DATA AT HEAD LOCATIONS

        OBSERVATION     OBSER-     SIMUL.                          WEIGHTED
   OBS#    NAME         VATION     EQUIV.    RESIDUAL  WEIGHT**.5  RESIDUAL
                          *          *
      1 1.0             102.       100.       1.59      0.999       1.59    
      2 1.1           -0.290E-01 -0.153E-04 -0.290E-01   20.0     -0.580    
      3 1.12          -0.129     -0.906E-01 -0.384E-01   20.0     -0.768    
      4 2.0             128.       137.      -9.30      0.999      -9.29    
      5 2.1           -0.410E-01 -0.948E-02 -0.315E-01   20.0     -0.630    
      6 2.2           -0.557     -0.276     -0.281       20.0      -5.62    
      7 2.8            -11.5      -13.0       1.43       20.0       28.6    
      8 2.12           -14.2      -18.8       4.59       20.0       91.7    
      9 3.0             157.       171.      -14.1      0.999      -14.0    
     10 3.1            -4.38      -3.67     -0.715       20.0      -14.3    
     11 3.12           -42.5      -56.2       13.7       20.0       274.    
     12 4.0             125.       137.      -12.5      0.999      -12.5    
     13 4.1           -0.670E-01 -0.163E-01 -0.508E-01   20.0      -1.02    
     14 4.12           -14.3      -18.8       4.54       20.0       90.9    
     15 5.0             141.       154.      -13.4      0.999      -13.4    
     16 5.1           -0.600E-01 -0.368E-01 -0.232E-01   20.0     -0.464    
     17 5.12           -21.7      -28.5       6.79       20.0       136.    
     18 6.0             127.       138.      -11.2      0.999      -11.2    
     19 6.1            0.500E-02 -0.125E-01  0.174E-01   20.0      0.349    
     20 6.12           -14.4      -19.2       4.82       20.0       96.4    
     21 7.0             101.       103.      -1.62      0.999      -1.61    
     22 7.1            0.480E-01 -0.114E-02  0.491E-01   20.0      0.983    
     23 7.12          -0.568      -1.38      0.813       20.0       16.3    
     24 8.0             158.       170.      -12.2      0.999      -12.2    
     25 8.1            -5.53      -5.81      0.277       20.0       5.53    
     26 8.12           -43.2      -57.3       14.0       20.0       281.    
     27 9.0             176.       186.      -9.53      0.999      -9.52    
     28 9.1           -0.992E-03 -0.505E-01  0.495E-01   20.0      0.990    
     29 9.12           -38.2      -49.5       11.3       20.0       225.    
     30 0.0             142.       154.      -12.2      0.999      -12.2    
     31 0.1           -0.130E-01 -0.429E-02 -0.871E-02   20.0     -0.174    
     32 0.12           -19.9      -26.1       6.21       20.0       124.    

 * THE OBSERVATION (AND CORRESPONDING SIMULATED EQUIVALENT) IS HEAD OR TEMPORAL
   CHANGE IN HEAD, AS SPECIFIED IN THE "HOB" INPUT FILE.  NEGATIVE TEMPORAL
   CHANGES INDICATE DRAWDOWN.

 STATISTICS FOR HEAD RESIDUALS :
 MAXIMUM WEIGHTED RESIDUAL  :  281.     OBS#     26
 MINIMUM WEIGHTED RESIDUAL  : -14.3     OBS#     10
 AVERAGE WEIGHTED RESIDUAL  :  39.2    
 # RESIDUALS >= 0. :     15
 # RESIDUALS < 0.  :     17
 NUMBER OF RUNS  :   19  IN   32 OBSERVATIONS

 SUM OF SQUARED WEIGHTED RESIDUALS (HEADS ONLY)  0.26697E+06

 DATA FOR FLOWS REPRESENTED USING THE RIVER PACKAGE

        OBSERVATION      MEAS.      CALC.                          WEIGHTED
   OBS#    NAME          FLOW       FLOW     RESIDUAL  WEIGHT**.5  RESIDUAL

     33 SS             -4.40      -4.62      0.224       2.50      0.560    
     34 TR3            -4.10      -4.48      0.382       2.63       1.00    
     35 TR12           -2.20      -2.63      0.427       4.76       2.03    

 STATISTICS FOR RIVER FLOW RESIDUALS :
 MAXIMUM WEIGHTED RESIDUAL  :  2.03     OBS#     35
 MINIMUM WEIGHTED RESIDUAL  : 0.560     OBS#     33
 AVERAGE WEIGHTED RESIDUAL  :  1.20    
 # RESIDUALS >= 0. :      3
 # RESIDUALS < 0.  :      0
 NUMBER OF RUNS:      1  IN      3 OBSERVATIONS

 SUM OF SQUARED WEIGHTED RESIDUALS (RIVER FLOWS ONLY)   5.4486    

 SUM OF SQUARED WEIGHTED RESIDUALS (ALL DEPENDENT VARIABLES)  0.26698E+06

 STATISTICS FOR ALL RESIDUALS :
 AVERAGE WEIGHTED RESIDUAL  : 0.359E+02
 # RESIDUALS >= 0. :     18
 # RESIDUALS < 0.  :     17
 NUMBER OF RUNS  :   19  IN   35 OBSERVATIONS

 THE NUMBER OF RUNS EQUALS THE EXPECTED NUMBER OF RUNS
 
 SOLVING PARAMETER SENSITIVITY FOR WELLS_TR  
 SUM OF POSITIVE RATES= 5.09557E+00    SUM OF NEGATIVE RATES= 5.09557E+00
               PERCENT DISCREPANCY=    0.00

 ONE-PERCENT SCALED SENSITIVITIES FOR PARAMETER "WELLS_TR  ", SCALED BY *B/100.

1
  WELLS_TR   SENS. IN LAYER   1 AT END OF TIME STEP   9 IN STRESS PERIOD    5
  ---------------------------------------------------------------------------

            1           2           3           4           5           6
            7           8           9          10          11          12
           13          14          15          16          17          18
 ........................................................................
   1   8.8589E-04  6.4177E-02  0.1238      0.1788      0.2298      0.2763    
       0.3181      0.3547      0.3861      0.4118      0.4323      0.4478    
       0.4592      0.4673      0.4728      0.4763      0.4784      0.4794    
   2   8.9282E-04  6.4680E-02  0.1248      0.1804      0.2320      0.2791    
       0.3216      0.3589      0.3907      0.4165      0.4367      0.4518    
       0.4625      0.4700      0.4749      0.4780      0.4798      0.4806    
   3   9.0610E-04  6.5645E-02  0.1268      0.1834      0.2363      0.2848    
       0.3288      0.3674      0.4002      0.4263      0.4460      0.4598    
       0.4692      0.4752      0.4789      0.4811      0.4824      0.4829    
   4   9.2451E-04  6.6982E-02  0.1295      0.1877      0.2425      0.2932    
       0.3396      0.3806      0.4152      0.4420      0.4606      0.4723    
       0.4791      0.4828      0.4847      0.4856      0.4859      0.4860    
   5   9.4608E-04  6.8550E-02  0.1327      0.1929      0.2501      0.3038    
       0.3540      0.3990      0.4371      0.4651      0.4818      0.4896    
       0.4923      0.4925      0.4917      0.4907      0.4900      0.4895    
   6   9.6803E-04  7.0147E-02  0.1361      0.1984      0.2584      0.3160    
       0.3714      0.4229      0.4676      0.4991      0.5114      0.5121    
       0.5082      0.5035      0.4992      0.4961      0.4940      0.4930    
   7   9.8692E-04  7.1523E-02  0.1390      0.2033      0.2662      0.3282    
       0.3902      0.4518      0.5095      0.5512      0.5521      0.5393    
       0.5255      0.5143      0.5061      0.5006      0.4973      0.4957    
   8   9.9916E-04  7.2415E-02  0.1409      0.2067      0.2719      0.3378    
       0.4068      0.4818      0.5645      0.6415      0.6058      0.5677    
       0.5405      0.5226      0.5109      0.5035      0.4991      0.4971    
   9   1.0019E-03  7.2613E-02  0.1414      0.2076      0.2736      0.3412    
       0.4142      0.5001      0.6188      0.8349      0.6590      0.5850    
       0.5471      0.5253      0.5120      0.5038      0.4991      0.4969    
  10   9.9385E-04  7.2030E-02  0.1402      0.2056      0.2705      0.3362    
       0.4050      0.4798      0.5624      0.6393      0.6035      0.5653    
       0.5382      0.5203      0.5086      0.5012      0.4968      0.4948    
  11   9.7621E-04  7.0747E-02  0.1375      0.2012      0.2635      0.3250    
       0.3866      0.4477      0.5052      0.5467      0.5475      0.5346    
       0.5207      0.5096      0.5015      0.4960      0.4926      0.4911    
  12   9.5176E-04  6.8969E-02  0.1338      0.1951      0.2543      0.3111    
       0.3658      0.4168      0.4610      0.4922      0.5043      0.5050    
       0.5011      0.4964      0.4922      0.4891      0.4870      0.4861    
  13   9.2403E-04  6.6953E-02  0.1297      0.1885      0.2445      0.2972    
       0.3464      0.3907      0.4282      0.4558      0.4722      0.4800    
       0.4827      0.4830      0.4823      0.4815      0.4808      0.4804    
  14   8.9638E-04  6.4945E-02  0.1256      0.1821      0.2353      0.2846    
       0.3299      0.3700      0.4038      0.4301      0.4485      0.4601    
       0.4670      0.4709      0.4729      0.4740      0.4745      0.4747    
  15   8.7155E-04  6.3142E-02  0.1219      0.1765      0.2274      0.2742    
       0.3168      0.3542      0.3861      0.4117      0.4311      0.4449    
       0.4544      0.4607      0.4648      0.4673      0.4688      0.4694    
  16   8.5151E-04  6.1687E-02  0.1190      0.1720      0.2213      0.2664    
       0.3071      0.3429      0.3736      0.3988      0.4188      0.4339    
       0.4451      0.4529      0.4584      0.4619      0.4641      0.4651    
  17   8.3753E-04  6.0673E-02  0.1170      0.1690      0.2172      0.2611    
       0.3007      0.3356      0.3656      0.3907      0.4110      0.4268    
       0.4389      0.4477      0.4540      0.4582      0.4608      0.4620    
  18   8.3038E-04  6.0154E-02  0.1160      0.1674      0.2151      0.2584    
       0.2975      0.3320      0.3617      0.3867      0.4071      0.4233    
       0.4358      0.4451      0.4517      0.4563      0.4591      0.4604    



          TIME SUMMARY AT END OF TIME STEP   9 IN STRESS PERIOD    5
                    SECONDS     MINUTES      HOURS       DAYS        YEARS
                    -----------------------------------------------------------
   TIME STEP LENGTH 4.87217E+06  81203.      1353.4      56.391     0.15439    
 STRESS PERIOD TIME 2.35675E+07 3.92791E+05  6546.5      272.77     0.74681    
         TOTAL TIME 2.44391E+07 4.07318E+05  6788.6      282.86     0.77443    
 

 LARGEST (ABSOLUTE VALUE) SOLVER DISCREPANCY FOR SENSITIVITIES
   WAS     0.00 PERCENT AND OCCURRED FOR PARAMETER "WELLS_TR  "
   IN STRESS PERIOD    5, TIME STEP    2

 ORDERED DEPENDENT-VARIABLE WEIGHTED RESIDUALS
 NUMBER OF RESIDUALS INCLUDED:        35
     -14.3      -14.0      -13.4      -12.5      -12.2      -12.2      -11.2    
     -9.52      -9.29      -5.62      -1.61      -1.02     -0.768     -0.630    
    -0.580     -0.464     -0.174      0.349      0.560      0.983      0.990    
      1.00       1.59       2.03       5.53       16.3       28.6       90.9    
      91.7       96.4       124.       136.       225.       274.       281.    

 CORRELATION BETWEEN ORDERED WEIGHTED RESIDUALS AND NORMAL ORDER STATISTICS
 FOR OBSERVATIONS =    0.625    

 --------------------------------------------------------------------------
 COMMENTS ON THE INTERPRETATION OF THE CORRELATION BETWEEN
 WEIGHTED RESIDUALS AND NORMAL ORDER STATISTICS:

 The critical value for correlation at the 5% significance level is 0.943

 IF the reported CORRELATION is GREATER than the 5% critical value, ACCEPT
 the hypothesis that the weighted residuals are INDEPENDENT AND NORMALLY
 DISTRIBUTED at the 5% significance level.  The probability that this   
 conclusion is wrong is less than 5%.

 IF the reported correlation IS LESS THAN the 5% critical value REJECT the
 hypothesis that the weighted residuals are INDEPENDENT AND NORMALLY
 DISTRIBUTED at the 5% significance level.

 The analysis can also be done using the 10% significance level.
 The associated critical value is 0.952
 --------------------------------------------------------------------------

