                                  MODFLOW-2000
      U.S. GEOLOGICAL SURVEY MODULAR FINITE-DIFFERENCE GROUND-WATER FLOW MODEL
                           VERSION 1.14.00 07/01/2004


 This model run combines GLOBAL and LIST output into this single file.

 GLOBAL LISTING FILE: test1tr.lst
                         UNIT    9

 OPENING ../data/test1tr.ba6
 FILE TYPE:BAS6   UNIT   75   STATUS:OLD    
 FORMAT:FORMATTED              ACCESS:SEQUENTIAL          

 OPENING ../data/test1tr.lpf
 FILE TYPE:LPF   UNIT    7   STATUS:OLD    
 FORMAT:FORMATTED              ACCESS:SEQUENTIAL          

 OPENING ../data/test1tr.dis
 FILE TYPE:DIS   UNIT    8   STATUS:OLD    
 FORMAT:FORMATTED              ACCESS:SEQUENTIAL          

 OPENING ../data/test1tr.sip
 FILE TYPE:SIP   UNIT   13   STATUS:OLD    
 FORMAT:FORMATTED              ACCESS:SEQUENTIAL          

 OPENING ../data/test1tr.oc
 FILE TYPE:OC   UNIT   14   STATUS:OLD    
 FORMAT:FORMATTED              ACCESS:SEQUENTIAL          

 OPENING ../data/test1tr.sfr
 FILE TYPE:SFR   UNIT   15   STATUS:OLD    
 FORMAT:FORMATTED              ACCESS:SEQUENTIAL          

 OPENING ../data/test1tr.wel
 FILE TYPE:WEL   UNIT   16   STATUS:OLD    
 FORMAT:FORMATTED              ACCESS:SEQUENTIAL          

 OPENING ../data/test1tr.ghb
 FILE TYPE:GHB   UNIT   17   STATUS:OLD    
 FORMAT:FORMATTED              ACCESS:SEQUENTIAL          

 OPENING ../data/test1tr.evt
 FILE TYPE:EVT   UNIT   18   STATUS:OLD    
 FORMAT:FORMATTED              ACCESS:SEQUENTIAL          

 OPENING ../data/test1tr.rch
 FILE TYPE:RCH   UNIT   19   STATUS:OLD    
 FORMAT:FORMATTED              ACCESS:SEQUENTIAL          

 OPENING ../data/test1tr.gag
 FILE TYPE:GAGE   UNIT   32   STATUS:OLD    
 FORMAT:FORMATTED              ACCESS:SEQUENTIAL          

 OPENING test1tr.hds
 FILE TYPE:DATA   UNIT   58   STATUS:UNKNOWN
 FORMAT:FORMATTED              ACCESS:SEQUENTIAL          

 OPENING test1tr.et
 FILE TYPE:DATA(BINARY)   UNIT   59   STATUS:UNKNOWN
 FORMAT:UNFORMATTED            ACCESS:TRANSPARENT         

 OPENING test1tr.flw
 FILE TYPE:DATA   UNIT   81   STATUS:UNKNOWN
 FORMAT:FORMATTED              ACCESS:SEQUENTIAL          

 OPENING test1tr.sg1
 FILE TYPE:DATA   UNIT   83   STATUS:UNKNOWN
 FORMAT:FORMATTED              ACCESS:SEQUENTIAL          

 OPENING test1tr.sg2
 FILE TYPE:DATA   UNIT   84   STATUS:UNKNOWN
 FORMAT:FORMATTED              ACCESS:SEQUENTIAL          

 OPENING test1tr.sg3
 FILE TYPE:DATA   UNIT   85   STATUS:UNKNOWN
 FORMAT:FORMATTED              ACCESS:SEQUENTIAL          

 OPENING test1tr.sg4
 FILE TYPE:DATA   UNIT   86   STATUS:UNKNOWN
 FORMAT:FORMATTED              ACCESS:SEQUENTIAL          

 OPENING test1tr.sg5
 FILE TYPE:DATA   UNIT   87   STATUS:UNKNOWN
 FORMAT:FORMATTED              ACCESS:SEQUENTIAL          

 OPENING test1tr.sg6
 FILE TYPE:DATA   UNIT   88   STATUS:UNKNOWN
 FORMAT:FORMATTED              ACCESS:SEQUENTIAL          

 OPENING test1tr.sg7
 FILE TYPE:DATA   UNIT   89   STATUS:UNKNOWN
 FORMAT:FORMATTED              ACCESS:SEQUENTIAL          

 OPENING test1tr.sg8
 FILE TYPE:DATA   UNIT   90   STATUS:UNKNOWN
 FORMAT:FORMATTED              ACCESS:SEQUENTIAL          

 OPENING test1tr.dvsg9
 FILE TYPE:DATA   UNIT   91   STATUS:UNKNOWN
 FORMAT:FORMATTED              ACCESS:SEQUENTIAL          

 THE FREE FORMAT OPTION HAS BEEN SELECTED

 DISCRETIZATION INPUT DATA READ FROM UNIT    8
 #Discretization input data for Test1 --Transient
    1 LAYERS        15 ROWS        10 COLUMNS
    2 STRESS PERIOD(S) IN SIMULATION
 MODEL TIME UNIT IS SECONDS
 MODEL LENGTH UNIT IS FEET
 THE GROUND-WATER TRANSPORT PROCESS IS INACTIVE

 THE OBSERVATION PROCESS IS INACTIVE
 THE SENSITIVITY PROCESS IS INACTIVE
 THE PARAMETER-ESTIMATION PROCESS IS INACTIVE

 MODE: FORWARD

  Confining bed flag for each layer:
   0

       1375  ELEMENTS OF GX ARRAY USED OUT OF       1375
        150  ELEMENTS OF GZ ARRAY USED OUT OF        150
        150  ELEMENTS OF IG ARRAY USED OUT OF        150

                     DELR =   5000.00    

                     DELC =   5000.00    



           TOP ELEVATION OF LAYER 1
 READING ON UNIT    8 WITH FORMAT: (10F7.0)            

            1           2           3           4           5           6           7           8           9          10
 ........................................................................................................................
   1    1105.       1105.       0.000       0.000       0.000       0.000       0.000       0.000       0.000       0.000    
   2    1105.       1095.       1105.       0.000       0.000       1100.       1100.       1110.       0.000       0.000    
   3    0.000       1100.       1085.       1080.       1078.       1076.       1073.       1090.       0.000       0.000    
   4    1110.       1100.       1090.       1085.       1076.       1080.       1080.       1070.       1100.       0.000    
   5    1110.       1100.       1085.       1080.       1078.       1074.       1077.       1066.       1075.       1080.    
   6    1105.       1095.       1080.       1077.       1073.       1069.       1070.       1063.       1085.       1095.    
   7    1105.       1090.       1075.       1072.       1070.       1065.       1065.       1069.       1090.       0.000    
   8    0.000       1080.       1070.       1068.       1063.       1060.       1063.       1067.       1090.       0.000    
   9    0.000       1075.       1065.       1062.       1058.       1052.       1055.       1065.       1090.       0.000    
  10    0.000       1070.       1060.       1055.       1046.       1046.       1044.       1060.       1088.       1100.    
  11    0.000       1055.       1050.       1045.       1041.       1042.       1040.       1050.       1075.       0.000    
  12    1027.       1028.       1028.       1032.       1032.       1033.       1032.       1040.       1060.       0.000    
  13    997.0       1004.       1008.       1014.       1020.       1027.       1032.       1038.       1050.       0.000    
  14    0.000       1030.       1040.       1045.       1050.       1050.       1050.       1050.       1044.       0.000    
  15    0.000       0.000       1080.       1080.       1080.       1080.       0.000       0.000       0.000       0.000    



             MODEL LAYER BOTTOM EL. FOR LAYER   1
 READING ON UNIT    8 WITH FORMAT: (10F7.0)            

            1           2           3           4           5           6           7           8           9          10
 ........................................................................................................................
   1    1000.       1000.       0.000       0.000       0.000       0.000       0.000       0.000       0.000       0.000    
   2    1000.       900.0       900.0       0.000       0.000       950.0       950.0       950.0       0.000       0.000    
   3    0.000       850.0       670.0       680.0       680.0       770.0       770.0       890.0       0.000       0.000    
   4    925.0       850.0       650.0       650.0       650.0       680.0       740.0       850.0       950.0       0.000    
   5    925.0       800.0       650.0       600.0       600.0       600.0       650.0       720.0       850.0       950.0    
   6    925.0       800.0       650.0       600.0       550.0       600.0       650.0       720.0       850.0       970.0    
   7    925.0       800.0       650.0       600.0       550.0       600.0       650.0       720.0       950.0       0.000    
   8    0.000       850.0       700.0       650.0       570.0       600.0       700.0       850.0       950.0       0.000    
   9    0.000       850.0       700.0       650.0       540.0       580.0       700.0       850.0       950.0       0.000    
  10    0.000       850.0       700.0       630.0       530.0       580.0       650.0       800.0       900.0       950.0    
  11    0.000       850.0       700.0       620.0       580.0       620.0       700.0       800.0       900.0       0.000    
  12    900.0       830.0       710.0       640.0       600.0       650.0       700.0       800.0       900.0       0.000    
  13    900.0       810.0       750.0       700.0       650.0       700.0       750.0       800.0       900.0       0.000    
  14    0.000       950.0       850.0       850.0       850.0       850.0       850.0       850.0       850.0       0.000    
  15    0.000       0.000       950.0       950.0       950.0       950.0       0.000       0.000       0.000       0.000    


 STRESS PERIOD     LENGTH       TIME STEPS     MULTIPLIER FOR DELT    SS FLAG
 ----------------------------------------------------------------------------
        1        1.5778801E+09     50                    1.100         TR
        2        1.5778801E+09     50                    1.100         TR

 TRANSIENT SIMULATION




 LPF1 -- LAYER PROPERTY FLOW PACKAGE, VERSION 1, 1/11/2000
         INPUT READ FROM UNIT    7
 # Layer-Property Flow Package input
 # For transient and steady state simulations
 HEAD AT CELLS THAT CONVERT TO DRY=   0.0000    
 No named parameters

   LAYER FLAGS:
 LAYER       LAYTYP        LAYAVG         CHANI        LAYVKA        LAYWET
 ---------------------------------------------------------------------------
    1             1             0     1.000E+00             1             0

   INTERPRETATION OF LAYER FLAGS:
                        INTERBLOCK     HORIZONTAL    DATA IN
         LAYER TYPE   TRANSMISSIVITY   ANISOTROPY   ARRAY VKA   WETTABILITY
 LAYER      (LAYTYP)      (LAYAVG)       (CHANI)      (LAYVKA)      (LAYWET)
 ---------------------------------------------------------------------------
    1   CONVERTIBLE      HARMONIC     1.000E+00    ANISOTROPY  NON-WETTABLE

        600 ELEMENTS IN X ARRAY ARE USED BY LPF
          6 ELEMENTS IN IX ARRAY ARE USED BY LPF

 SIP5 -- STRONGLY IMPLICIT PROCEDURE SOLUTION PACKAGE
                    VERSION 5, 9/1/93 INPUT READ FROM UNIT   13
 MAXIMUM OF 300 ITERATIONS ALLOWED FOR CLOSURE
  5 ITERATION PARAMETERS
        905 ELEMENTS IN X ARRAY ARE USED BY SIP
        900 ELEMENTS IN IX ARRAY ARE USED BY SIP

       1505  ELEMENTS OF X ARRAY USED OUT OF       1505
          0  ELEMENTS OF Z ARRAY USED OUT OF          1
        906  ELEMENTS OF IX ARRAY USED OUT OF        906
          0  ELEMENTS OF XHS ARRAY USED OUT OF          1



          SOLUTION BY THE STRONGLY IMPLICIT PROCEDURE
          -------------------------------------------
 MAXIMUM ITERATIONS ALLOWED FOR CLOSURE =      300
                 ACCELERATION PARAMETER =    0.80000    
      HEAD CHANGE CRITERION FOR CLOSURE =    0.10000E-02
      SIP HEAD CHANGE PRINTOUT INTERVAL =        1

     CALCULATE ITERATION PARAMETERS FROM MODEL CALCULATED WSEED

 WETTING CAPABILITY IS NOT ACTIVE IN ANY LAYER



              HYD. COND. ALONG ROWS FOR LAYER   1
 READING ON UNIT    7 WITH FORMAT: (10F5.0)            

            1           2           3           4           5           6           7           8           9          10
 ........................................................................................................................
   1   2.0000E-03  2.0000E-03   0.000       0.000       0.000       0.000       0.000       0.000       0.000       0.000    
   2   4.0000E-04  2.0000E-03  2.0000E-03   0.000       0.000      4.0000E-04  4.0000E-04  4.0000E-04   0.000       0.000    
   3    0.000      4.0000E-04  2.0000E-03  2.0000E-03  4.0000E-04  4.0000E-04  4.0000E-04  4.0000E-04   0.000       0.000    
   4   4.0000E-04  4.0000E-04  4.0000E-04  2.0000E-03  2.0000E-03  2.0000E-03  4.0000E-04  4.0000E-04  4.0000E-04   0.000    
   5   4.0000E-04  4.0000E-04  4.0000E-04  2.0000E-03  2.0000E-03  2.0000E-03  2.0000E-03  2.0000E-03  2.0000E-03  2.0000E-03
   6   4.0000E-04  4.0000E-04  4.0000E-04  2.0000E-03  2.0000E-03  2.0000E-03  2.0000E-03  2.0000E-03  4.0000E-04  4.0000E-04
   7   4.0000E-04  4.0000E-04  4.0000E-04  2.0000E-03  2.0000E-03  2.0000E-03  2.0000E-03  2.0000E-03  4.0000E-04   0.000    
   8    0.000      4.0000E-04  4.0000E-04  2.0000E-03  2.0000E-03  2.0000E-03  2.0000E-03  4.0000E-04  4.0000E-04   0.000    
   9    0.000      4.0000E-04  4.0000E-04  2.0000E-03  2.0000E-03  2.0000E-03  2.0000E-03  4.0000E-04  4.0000E-04   0.000    
  10    0.000      4.0000E-04  4.0000E-04  2.0000E-03  2.0000E-03  2.0000E-03  2.0000E-03  4.0000E-04  4.0000E-04  4.0000E-04
  11    0.000      4.0000E-04  4.0000E-04  2.0000E-03  2.0000E-03  2.0000E-03  2.0000E-03  4.0000E-04  4.0000E-04   0.000    
  12   4.0000E-04  4.0000E-04  2.0000E-03  2.0000E-03  2.0000E-03  2.0000E-03  2.0000E-03  4.0000E-04  4.0000E-04   0.000    
  13   2.0000E-03  2.0000E-03  2.0000E-03  2.0000E-03  2.0000E-03  2.0000E-03  2.0000E-03  2.0000E-03  2.0000E-03   0.000    
  14    0.000      4.0000E-04  4.0000E-04  4.0000E-04  4.0000E-04  4.0000E-04  4.0000E-04  4.0000E-04  2.0000E-03   0.000    
  15    0.000       0.000      4.0000E-04  4.0000E-04  4.0000E-04  4.0000E-04   0.000       0.000       0.000       0.000    

  HORIZ. TO VERTICAL ANI. =   1.00000     FOR LAYER   1

         SPECIFIC STORAGE =  1.000000E-06 FOR LAYER   1



                     SPECIFIC YIELD FOR LAYER   1
 READING ON UNIT    7 WITH FORMAT: (10F4.0)            

            1           2           3           4           5           6           7           8           9          10
 ........................................................................................................................
   1   0.2000      0.2000       0.000       0.000       0.000       0.000       0.000       0.000       0.000       0.000    
   2   0.1000      0.2000      0.2000       0.000       0.000      0.1000      0.1000      0.1000       0.000       0.000    
   3    0.000      0.1000      0.2000      0.2000      0.1000      0.1000      0.1000      0.1000       0.000       0.000    
   4   0.1000      0.1000      0.1000      0.2000      0.2000      0.2000      0.1000      0.1000      0.1000       0.000    
   5   0.1000      0.1000      0.1000      0.2000      0.2000      0.2000      0.2000      0.2000      0.2000      0.2000    
   6   0.1000      0.1000      0.1000      0.2000      0.2000      0.2000      0.2000      0.2000      0.1000      0.1000    
   7   0.1000      0.1000      0.1000      0.2000      0.2000      0.2000      0.2000      0.2000      0.1000       0.000    
   8    0.000      0.1000      0.1000      0.2000      0.2000      0.2000      0.2000      0.1000      0.1000       0.000    
   9    0.000      0.1000      0.1000      0.2000      0.2000      0.2000      0.2000      0.1000      0.1000       0.000    
  10    0.000      0.1000      0.1000      0.2000      0.2000      0.2000      0.2000      0.1000      0.1000      0.1000    
  11    0.000      0.1000      0.1000      0.2000      0.2000      0.2000      0.2000      0.1000      0.1000       0.000    
  12   0.1000      0.1000      0.2000      0.2000      0.2000      0.2000      0.2000      0.1000      0.1000       0.000    
  13   0.2000      0.2000      0.2000      0.2000      0.2000      0.2000      0.2000      0.2000      0.2000       0.000    
  14    0.000      0.1000      0.1000      0.1000      0.1000      0.1000      0.1000      0.1000      0.2000       0.000    
  15    0.000       0.000      0.1000      0.1000      0.1000      0.1000       0.000       0.000       0.000       0.000    
 
 #TestProblem 1                                                                  
 #Transient Simulation For SFR Package                                           
 THE FREE FORMAT OPTION HAS BEEN SELECTED
    1 LAYERS        15 ROWS        10 COLUMNS
    2 STRESS PERIOD(S) IN SIMULATION

 BAS6 -- BASIC PACKAGE, VERSION 6, 1/11/2000 INPUT READ FROM UNIT   75
          5 ELEMENTS IN IR ARRAY ARE USED BY BAS

 WEL6 -- WELL PACKAGE, VERSION 6, 1/11/2000 INPUT READ FROM UNIT   16
 No named parameters
 MAXIMUM OF     10 ACTIVE WELLS AT ONE TIME
 CELL-BY-CELL FLOWS WILL BE PRINTED WHEN ICBCFL NOT 0
         40 ELEMENTS IN RX ARRAY ARE USED BY WEL

 EVT6 -- EVAPOTRANSPIRATION PACKAGE, VERSION 6, 12/14/2000
         INPUT READ FROM UNIT   18
 No named parameters
 OPTION 1 -- EVAPOTRANSPIRATION FROM TOP LAYER
 CELL-BY-CELL FLOWS WILL BE SAVED ON UNIT   59
        450 ELEMENTS IN RX ARRAY ARE USED BY EVT
        150 ELEMENTS IN IR ARRAY ARE USED BY EVT

 GHB6 -- GHB PACKAGE, VERSION 6, 1/11/2000 INPUT READ FROM UNIT   17
 No named parameters
 MAXIMUM OF      2 ACTIVE GHB CELLS AT ONE TIME
 CELL-BY-CELL FLOWS WILL BE PRINTED WHEN ICBCFL NOT 0
         10 ELEMENTS IN RX ARRAY ARE USED BY GHB

 RCH6 -- RECHARGE PACKAGE, VERSION 6, 1/11/2000 INPUT READ FROM UNIT   19
 No named parameters
 OPTION 1 -- RECHARGE TO TOP LAYER
        150 ELEMENTS IN RX ARRAY ARE USED BY RCH
        150 ELEMENTS IN IR ARRAY ARE USED BY RCH

 SFR1 -- STREAMFLOW ROUTING PACKAGE, VERSION 1, 8/15/2003
         INPUT READ FROM UNIT  15
 #Test Problem 1 using SFR1


 NUMBER OF STREAM NODES IS     36

 NUMBER OF STREAM SEGMENTS IS      8

 NUMBER OF STREAM PARAMETERS IS    0

 NUMBER OF STREAM SEGMENTS DEFINED USING PARAMETERS IS      0

 MAXIMUM DIFFERENCE IN STREAM HEAD BETWEEN ITERATONS IS   1.00E-04

 CONSTANT FOR MANNINGS EQUATION IS  1.4860E+00



 STREAMFLOW OUT OF EACH REACH WILL BE SAVED ON UNIT   81
       2147 ELEMENTS IN RX ARRAY ARE USED BY SFR
        236 ELEMENTS IN IR ARRAY ARE USED BY SFR
          3 ELEMENTS IN RX ARRAY ARE USED BY GAGE
         36 ELEMENTS IN IR ARRAY ARE USED BY GAGE

       2980  ELEMENTS OF RX ARRAY USED OUT OF       2980
        577  ELEMENTS OF IR ARRAY USED OUT OF        577
1
 #TestProblem 1                                                                  
 #Transient Simulation For SFR Package                                           



                     BOUNDARY ARRAY FOR LAYER   1
 READING ON UNIT   75 WITH FORMAT: (20I4)              

                1           2           3           4           5           6           7           8           9          10
 ............................................................................................................................
   1            1           1           0           0           0           0           0           0           0           0
   2            1           1           1           0           0           1           1           1           0           0
   3            0           1           1           1           1           1           1           1           0           0
   4            1           1           1           1           1           1           1           1           1           0
   5            1           1           1           1           1           1           1           1           1           1
   6            1           1           1           1           1           1           1           1           1           1
   7            1           1           1           1           1           1           1           1           1           0
   8            0           1           1           1           1           1           1           1           1           0
   9            0           1           1           1           1           1           1           1           1           0
  10            0           1           1           1           1           1           1           1           1           1
  11            0           1           1           1           1           1           1           1           1           0
  12            1           1           1           1           1           1           1           1           1           0
  13            1           1           1           1           1           1           1           1           1           0
  14            0           1           1           1           1           1           1           1           1           0
  15            0           0           1           1           1           1           0           0           0           0

 AQUIFER HEAD WILL BE SET TO  6999.0     AT ALL NO-FLOW NODES (IBOUND=0).



                       INITIAL HEAD FOR LAYER   1
 READING ON UNIT   75 WITH FORMAT: (10F8.0)            

            1           2           3           4           5           6           7           8           9          10
 ........................................................................................................................
   1    1093.       1089.       6999.       6999.       6999.       6999.       6999.       6999.       6999.       6999.    
   2    1090.       1087.       1081.       6999.       6999.       1072.       1072.       1071.       6999.       6999.    
   3    6999.       1079.       1078.       1074.       1072.       1071.       1069.       1068.       6999.       6999.    
   4    1069.       1071.       1070.       1067.       1066.       1064.       1064.       1066.       1066.       6999.    
   5    1065.       1064.       1063.       1062.       1061.       1061.       1060.       1062.       1066.       1068.    
   6    1060.       1058.       1057.       1056.       1056.       1057.       1057.       1059.       1062.       1066.    
   7    1056.       1053.       1052.       1051.       1051.       1052.       1053.       1056.       1056.       6999.    
   8    6999.       1046.       1046.       1046.       1046.       1046.       1048.       1050.       1050.       6999.    
   9    6999.       1039.       1039.       1040.       1040.       1041.       1042.       1043.       1044.       6999.    
  10    6999.       1031.       1032.       1033.       1034.       1035.       1036.       1038.       1039.       1042.    
  11    6999.       1021.       1023.       1027.       1029.       1030.       1032.       1034.       1036.       6999.    
  12    1001.       1009.       1014.       1020.       1023.       1026.       1029.       1030.       1034.       6999.    
  13    994.5       1000.       1007.       1013.       1019.       1024.       1029.       1034.       1036.       6999.    
  14    6999.       1004.       1009.       1014.       1019.       1024.       1030.       1035.       1039.       6999.    
  15    6999.       6999.       1012.       1015.       1019.       1022.       6999.       6999.       6999.       6999.    

 OUTPUT CONTROL IS SPECIFIED ONLY AT TIME STEPS FOR WHICH OUTPUT IS DESIRED
 HEADS WILL BE SAVED WITH FORMAT: (10F10.3)           
 SAVED HEADS WILL BE LABELED
 HEAD PRINT FORMAT CODE IS   4    DRAWDOWN PRINT FORMAT CODE IS   0
 HEADS WILL BE SAVED ON UNIT   58    DRAWDOWNS WILL BE SAVED ON UNIT    0


     0 Well parameters


     0 Evapotranspiration parameters


     0 GHB parameters


     0 Recharge parameters


   STREAM NETWORK DESCRIPTION: 

   LAYER    ROW    COL   SEGMENT   REACH     LENGTH
                          NUMBER   NUMBER    IN CELL
   --------------------------------------------------
       1      1      1       1        1     4.500E+03
       1      2      2       1        2     7.000E+03
       1      3      3       1        3     6.000E+03
       1      3      4       1        4     5.550E+03
       1      4      5       2        1     6.500E+03
       1      5      6       2        2     5.000E+03
       1      6      6       2        3     5.000E+03
       1      7      6       2        4     5.000E+03
       1      8      6       2        5     5.000E+03
       1      3      5       3        1     5.000E+03
       1      3      6       3        2     5.000E+03
       1      3      7       3        3     4.500E+03
       1      4      8       3        4     6.000E+03
       1      5      8       3        5     5.000E+03
       1      6      8       3        6     2.000E+03
       1      5     10       4        1     2.500E+03
       1      5      9       4        2     5.000E+03
       1      6      8       4        3     3.500E+03
       1      6      8       5        1     4.000E+03
       1      7      7       5        2     5.000E+03
       1      8      7       5        3     3.500E+03
       1      8      6       5        4     2.500E+03
       1      9      6       6        1     5.000E+03
       1     10      7       6        2     5.000E+03
       1     11      7       6        3     5.000E+03
       1     12      7       6        4     5.000E+03
       1     13      7       6        5     2.000E+03
       1     14      9       7        1     5.000E+03
       1     13      8       7        2     5.500E+03
       1     13      7       7        3     5.000E+03
       1     13      6       8        1     5.000E+03
       1     13      5       8        2     5.000E+03
       1     13      4       8        3     5.000E+03
       1     13      3       8        4     5.000E+03
       1     13      2       8        5     5.000E+03
       1     13      1       8        6     3.000E+03






   9 GAGING STATIONS WERE SPECIFIED.
     (Lakes are identified by a negative value of the Lake Number)
     RECORDS WILL BE WRITTEN TO SEPARATE OUTPUT FILES REPRESENTED BY FOLLOWING UNIT NUMBERS:

 Stream Gages:
  GAGE #   SEGMENT   REACH   UNIT   OUTTYPE
       1       1       4      83       4
       2       2       3      84       1
       3       3       5      85       1
       4       4       3      86       1
       5       5       4      87       4
       6       6       5      88       1
       7       7       3      89       4
       8       8       6      90       4
       9       3       1      91       5




1
                            STRESS PERIOD NO.    1, LENGTH =  0.1577880E+10
                            -----------------------------------------------

                              NUMBER OF TIME STEPS =    50

                               MULTIPLIER FOR DELT =     1.100

                            INITIAL TIME STEP SIZE =   1355672.    

 WELL NO.  LAYER   ROW   COL   STRESS RATE         
 --------------------------------------------------
      1      1      6      4      -10.00    
      2      1      6      5      -10.00    
      3      1      7      4      -10.00    
      4      1      7      5      -10.00    
      5      1      8      4      -10.00    
      6      1      8      5      -10.00    
      7      1      9      4      -10.00    
      8      1      9      5      -10.00    
      9      1     10      4      -10.00    
     10      1     10      5      -10.00    

     10 WELLS



                         ET SURFACE
 READING ON UNIT   18 WITH FORMAT: (10F7.0)            

            1           2           3           4           5           6           7           8           9          10
 ........................................................................................................................
   1    1110.       1110.       0.000       0.000       0.000       0.000       0.000       0.000       0.000       0.000    
   2    1110.       1105.       1110.       0.000       0.000       1100.       1100.       1110.       0.000       0.000    
   3    0.000       1100.       1095.       1088.       1085.       1085.       1085.       1090.       0.000       0.000    
   4    1105.       1100.       1090.       1083.       1078.       1075.       1080.       1085.       1100.       0.000    
   5    1105.       1090.       1080.       1077.       1074.       1073.       1074.       1078.       1080.       1085.    
   6    1100.       1080.       1075.       1072.       1071.       1069.       1070.       1075.       1080.       1100.    
   7    1100.       1080.       1070.       1065.       1065.       1065.       1065.       1070.       1090.       0.000    
   8    0.000       1075.       1065.       1059.       1059.       1058.       1063.       1070.       1090.       0.000    
   9    0.000       1065.       1055.       1053.       1053.       1052.       1055.       1065.       1090.       0.000    
  10    0.000       1060.       1046.       1046.       1046.       1046.       1044.       1060.       1088.       1100.    
  11    0.000       1045.       1039.       1040.       1041.       1042.       1040.       1050.       1075.       0.000    
  12    1027.       1028.       1028.       1032.       1032.       1033.       1032.       1040.       1060.       0.000    
  13    997.0       1004.       1008.       1014.       1020.       1027.       1032.       1038.       1050.       0.000    
  14    0.000       1030.       1040.       1045.       1050.       1050.       1050.       1050.       1044.       0.000    
  15    0.000       0.000       1080.       1080.       1080.       1080.       0.000       0.000       0.000       0.000    

  EVAPOTRANSPIRATION RATE =  9.500000E-08

         EXTINCTION DEPTH =   15.0000    

 BOUND. NO. LAYER   ROW   COL     STAGE      CONDUCTANCE         
 ----------------------------------------------------------------
      1      1     13      1       988.0          0.3800E-01
      2      1     14      9       1045.          0.3800E-01

      2 GHB CELLS



                           RECHARGE
 READING ON UNIT   19 WITH FORMAT: (10F4.0)            

            1           2           3           4           5           6           7           8           9          10
 ........................................................................................................................
   1   2.5000E-10  1.0000E-09   0.000       0.000       0.000       0.000       0.000       0.000       0.000       0.000    
   2   1.0000E-09  2.5000E-10  1.0000E-09   0.000       0.000      4.0000E-09  4.0000E-09  4.0000E-09   0.000       0.000    
   3    0.000      1.0000E-09  2.5000E-10  1.0000E-09  1.0000E-09  2.5000E-10  2.5000E-10  2.5000E-10   0.000       0.000    
   4   4.0000E-09  2.5000E-10  2.5000E-10  2.5000E-10  2.5000E-10  2.5000E-10  2.5000E-10  2.5000E-10  1.0000E-09   0.000    
   5   4.0000E-09  2.5000E-10  2.5000E-10  2.5000E-10  2.5000E-10  2.5000E-10  2.5000E-10  2.5000E-10  2.5000E-10  2.5000E-10
   6   1.0000E-09  2.5000E-10  2.5000E-10  2.5000E-10  2.5000E-10  2.5000E-10  2.5000E-10  2.5000E-10  2.5000E-10  1.0000E-09
   7   1.0000E-09  2.5000E-10  2.5000E-10  2.5000E-10  2.5000E-10  2.5000E-10  2.5000E-10  2.5000E-10  1.0000E-09   0.000    
   8    0.000      1.0000E-09  2.5000E-10  2.5000E-10  2.5000E-10  2.5000E-10  2.5000E-10  2.5000E-10  1.0000E-09   0.000    
   9    0.000      1.0000E-09  2.5000E-10  2.5000E-10  2.5000E-10  2.5000E-10  2.5000E-10  2.5000E-10  1.0000E-09   0.000    
  10    0.000      1.0000E-09  2.5000E-10  2.5000E-10  2.5000E-10  2.5000E-10  2.5000E-10  2.5000E-10  2.5000E-10  4.0000E-09
  11    0.000      1.0000E-09  2.5000E-10  2.5000E-10  2.5000E-10  2.5000E-10  2.5000E-10  2.5000E-10  1.0000E-09   0.000    
  12   1.0000E-09  2.5000E-10  2.5000E-10  2.5000E-10  2.5000E-10  2.5000E-10  2.5000E-10  2.5000E-10  1.0000E-09   0.000    
  13   2.5000E-10  2.5000E-10  2.5000E-10  2.5000E-10  2.5000E-10  2.5000E-10  2.5000E-10  2.5000E-10  1.0000E-09   0.000    
  14    0.000      2.5000E-10  2.5000E-10  2.5000E-10  2.5000E-10  2.5000E-10  1.0000E-09  1.0000E-09  2.5000E-10   0.000    
  15    0.000       0.000      1.0000E-09  1.0000E-09  1.0000E-09  1.0000E-09   0.000       0.000       0.000       0.000    



 CLASSIFICATION & COUNT OF STREAM SEGMENTS BASED ON SOURCE OF INFLOW:

                HEADWATER     DIVERSION     RECEIVES TRIBUTARY FLOW
                ---------     ---------     -----------------------
                     3              1               4



                    INPUT DATA FOR EACH STREAM SEGMENT
 ---------------------------------------------------------------------------------------------

 SEGMENT    SEG.     INFLOW   OVERLAND   STREAM    STREAM   ICALC  OUTFLOW  DIVERSION PRIORITY
    NO.    LENGTH     RATE     RUNOFF      ET       PPT.    METH.  TO SEG.  FROM SEG.    NO.

      1  2.305E+04 2.500E+01 0.000E+00 0.000E+00 0.000E+00    4        2        0        0
      2  2.650E+04 0.000E+00 0.000E+00 0.000E+00 0.000E+00    1        6        0        0
      3  2.750E+04 1.000E+01 0.000E+00 0.000E+00 0.000E+00    0        5        1        0
      4  1.100E+04 1.000E+01 0.000E+00 0.000E+00 0.000E+00    1        5        0        0
      5  1.500E+04 0.000E+00 0.000E+00 0.000E+00 0.000E+00    3        6        0        0
      6  2.200E+04 0.000E+00 0.000E+00 0.000E+00 0.000E+00    1        8        0        0
      7  1.550E+04 1.500E+02 0.000E+00 0.000E+00 0.000E+00    2        8        0        0
      8  2.800E+04 0.000E+00 0.000E+00 0.000E+00 0.000E+00    2        0        0        0


         STREAMBED PROPERTIES AND STREAM DIMENSIONS

 SEGMENT     BED HYD. COND.      BED THICKNESS     ELEV.-TOP OF BED     WIDTH OF STREAM     DEPTH OF STREAM    STREAM ROUGHNESS
    No.     UPPER     LOWER     UPPER     LOWER     UPPER     LOWER     UPPER     LOWER     UPPER     LOWER   CHANNEL      BANK

     1  3.000E-05 3.000E-05 3.000E+00 3.000E+00 1.095E+03 1.075E+03
     2  3.000E-05 3.000E-05 3.000E+00 3.000E+00 1.075E+03 1.050E+03 1.200E+01 1.200E+01                     3.000E-02
     3  3.000E-05 3.000E-05 2.000E+00 2.000E+00 1.075E+03 1.060E+03 1.000E+01 6.000E+00 2.000E+00 1.000E+00
     4  3.000E-05 3.000E-05 3.000E+00 3.000E+00 1.080E+03 1.060E+03 1.000E+01 1.000E+01                     3.000E-02
     5  3.000E-05 3.000E-05 3.000E+00 3.000E+00 1.060E+03 1.045E+03
     6  3.000E-05 3.000E-05 3.000E+00 3.000E+00 1.045E+03 1.025E+03 1.200E+01 1.200E+01                     3.000E-02
     7  6.000E-05 6.000E-05 3.000E+00 3.000E+00 1.040E+03 1.025E+03                                         2.500E-02 4.500E-02
     8  6.000E-05 6.000E-05 3.000E+00 3.000E+00 1.025E+03 9.900E+02                                         2.500E-02 4.500E-02

  EIGHT POINT CROSS SECTION DATA FOR SEGMENTS WITH ICALC = 2
    X VALUES X VALUES START FROM LEFT SIDE LOOKING DOWNSTREAM

     SEGMENT NO.        X1        X2        X3        X4        X5        X6        X7        X8
            7      0.000E+00 1.000E+01 8.000E+01 1.000E+02 1.500E+02 1.700E+02 2.400E+02 2.500E+02
            8      0.000E+00 1.000E+01 8.000E+01 1.000E+02 1.500E+02 1.700E+02 2.400E+02 2.500E+02

    Z VALUES ARE RELATIVE TO STREAMBED ELEVATION

     SEGMENT NO.          Z1        Z2        Z3        Z4        Z5        Z6        Z7        Z8
            7      2.000E+01 1.300E+01 1.000E+01 2.000E+00 0.000E+00 1.000E+01 1.300E+01 2.000E+01
            8      2.500E+01 1.700E+01 1.300E+01 4.000E+00 0.000E+00 1.000E+01 1.600E+01 2.000E+01

 STREAMFLOW RELATION WITH DEPTH IS BASED ON EQUATION Q = CDPTH*(DEPTH)**FDPTH
 STREAMFLOW RELATION WITH WIDTH IS BASED ON EQUATION Q = AWDTH*(WIDTH)**BWDTH

 SEGMENT NO.      CDPTH     FDPTH    AWDTH     BWDTH

          5 3.000E-01 3.500E-01 3.800E+00 6.000E-01

 STREAMFLOW RELATION WITH DEPTH AND WIDTH IS BASED ON TABULATED VALUES

  SEGMENT NO.   STREAMFLOW       DEPTH       WIDTH

          1     5.0000E-01   2.5000E-01   3.0000E+00
          1     1.0000E+00   4.0000E-01   3.5000E+00
          1     2.0000E+00   5.5000E-01   4.2000E+00
          1     4.0000E+00   7.0000E-01   5.3000E+00
          1     7.0000E+00   8.0000E-01   7.0000E+00
          1     1.0000E+01   9.0000E-01   8.5000E+00
          1     2.0000E+01   1.1000E+00   1.2000E+01
          1     3.0000E+01   1.2500E+00   1.4000E+01
          1     5.0000E+01   1.4000E+00   1.7000E+01
          1     7.5000E+01   1.7000E+00   2.0000E+01
          1     1.0000E+02   2.6000E+00   2.2000E+01



 
 SOLVING FOR HEAD 

 AVERAGE SEED = 0.00926851
 MINIMUM SEED = 0.00187707

     5 ITERATION PARAMETERS CALCULATED FROM AVERAGE SEED:

  0.000000E+00 0.689721E+00 0.903727E+00 0.970128E+00 0.990731E+00

     6 ITERATIONS FOR TIME STEP   1 IN STRESS PERIOD    1

 MAXIMUM HEAD CHANGE FOR EACH ITERATION:

    HEAD CHANGE   HEAD CHANGE   HEAD CHANGE   HEAD CHANGE   HEAD CHANGE
  LAYER,ROW,COL LAYER,ROW,COL LAYER,ROW,COL LAYER,ROW,COL LAYER,ROW,COL
 ----------------------------------------------------------------------
     -1.862       -0.4428       -0.9350E-01   -0.1903E-01   -0.3834E-02
  (  1,  9,  4) (  1,  8,  4) (  1,  8,  4) (  1,  8,  4) (  1,  8,  5)
    -0.7566E-03
  (  1,  8,  5)


 OUTPUT CONTROL FOR STRESS PERIOD    1   TIME STEP   1
    PRINT BUDGET
    PRINT HEAD FOR ALL LAYERS
    SAVE BUDGET

            WELLS   PERIOD    1   STEP   1
 WELL      1   LAYER   1   ROW     6   COL     4   RATE    -10.0000    
 WELL      2   LAYER   1   ROW     6   COL     5   RATE    -10.0000    
 WELL      3   LAYER   1   ROW     7   COL     4   RATE    -10.0000    
 WELL      4   LAYER   1   ROW     7   COL     5   RATE    -10.0000    
 WELL      5   LAYER   1   ROW     8   COL     4   RATE    -10.0000    
 WELL      6   LAYER   1   ROW     8   COL     5   RATE    -10.0000    
 WELL      7   LAYER   1   ROW     9   COL     4   RATE    -10.0000    
 WELL      8   LAYER   1   ROW     9   COL     5   RATE    -10.0000    
 WELL      9   LAYER   1   ROW    10   COL     4   RATE    -10.0000    
 WELL     10   LAYER   1   ROW    10   COL     5   RATE    -10.0000    
 UBUDSV SAVING "              ET" ON UNIT 59 AT TIME STEP  1, STRESS PERIOD    1

  HEAD DEP BOUNDS   PERIOD    1   STEP   1
 BOUNDARY      1   LAYER   1   ROW    13   COL     1   RATE   -0.247591    
 BOUNDARY      2   LAYER   1   ROW    14   COL     9   RATE    0.215785    



   STREAM LEAKAGE   PERIOD    1   STEP   1

 LAYER ROW COL. STREAM  RCH.  FLOW INTO    FLOW TO  FLOW OUT OF  OVRLND.   DIRECT    STREAM    STREAM    STREAM    STREAM  STREAMBED  STREAMBED
                SEG.NO.  NO.  STRM. RCH.   AQUIFER   STRM. RCH.  RUNOFF    PRECIP      ET       HEAD      DEPTH     WIDTH  CONDCTNC.   GRADIENT

   1    1    1     1     1    2.500E+01   7.777E-01  2.422E+01  0.00E+00  0.00E+00  0.00E+00  1.09E+03  1.17E+00  1.30E+01  5.84E-01  4.44E-01
   1    2    2     1     2    2.422E+01   2.215E+00  2.201E+01  0.00E+00  0.00E+00  0.00E+00  1.09E+03  1.15E+00  1.27E+01  8.88E-01  8.32E-01
   1    3    3     1     3    2.201E+01   2.987E+00  1.902E+01  0.00E+00  0.00E+00  0.00E+00  1.08E+03  1.11E+00  1.21E+01  7.27E-01  1.37E+00
   1    3    4     1     4    1.902E+01   2.549E+00  1.647E+01  0.00E+00  0.00E+00  0.00E+00  1.08E+03  1.06E+00  1.13E+01  6.28E-01  1.35E+00
   1    4    5     2     1    6.471E+00   2.759E+00  3.712E+00  0.00E+00  0.00E+00  0.00E+00  1.07E+03  5.37E-01  1.20E+01  7.80E-01  1.18E+00
   1    5    6     2     2    3.712E+00   2.031E+00  1.681E+00  0.00E+00  0.00E+00  0.00E+00  1.07E+03  3.85E-01  1.20E+01  6.00E-01  1.13E+00
   1    6    6     2     3    1.681E+00   1.681E+00  0.000E+00  0.00E+00  0.00E+00  0.00E+00  1.06E+03  2.39E-01  1.20E+01  6.00E-01  1.08E+00
   1    7    6     2     4    0.000E+00   0.000E+00  0.000E+00  0.00E+00  0.00E+00  0.00E+00  1.06E+03  0.00E+00  1.20E+01  6.00E-01  1.00E+00
   1    8    6     2     5    0.000E+00   0.000E+00  0.000E+00  0.00E+00  0.00E+00  0.00E+00  1.05E+03  0.00E+00  1.20E+01  6.00E-01  1.00E+00
   1    3    5     3     1    1.000E+01   2.203E+00  7.797E+00  0.00E+00  0.00E+00  0.00E+00  1.08E+03  1.91E+00  9.64E+00  7.23E-01  1.52E+00
   1    3    6     3     2    7.797E+00   1.358E+00  6.439E+00  0.00E+00  0.00E+00  0.00E+00  1.07E+03  1.73E+00  8.91E+00  6.68E-01  1.02E+00
   1    3    7     3     3    6.439E+00   4.164E-01  6.023E+00  0.00E+00  0.00E+00  0.00E+00  1.07E+03  1.55E+00  8.22E+00  5.55E-01  3.75E-01
   1    4    8     3     4    6.023E+00   6.120E-01  5.411E+00  0.00E+00  0.00E+00  0.00E+00  1.07E+03  1.36E+00  7.45E+00  6.71E-01  4.56E-01
   1    5    8     3     5    5.411E+00   8.046E-01  4.606E+00  0.00E+00  0.00E+00  0.00E+00  1.06E+03  1.16E+00  6.65E+00  4.99E-01  8.06E-01
   1    6    8     3     6    4.606E+00   4.586E-01  4.148E+00  0.00E+00  0.00E+00  0.00E+00  1.06E+03  1.04E+00  6.15E+00  1.84E-01  1.24E+00
   1    5   10     4     1    1.000E+01   9.096E-01  9.090E+00  0.00E+00  0.00E+00  0.00E+00  1.08E+03  6.39E-01  1.00E+01  2.50E-01  1.21E+00
   1    5    9     4     2    9.090E+00   1.802E+00  7.289E+00  0.00E+00  0.00E+00  0.00E+00  1.07E+03  6.03E-01  1.00E+01  5.00E-01  1.20E+00
   1    6    8     4     3    7.289E+00   1.235E+00  6.054E+00  0.00E+00  0.00E+00  0.00E+00  1.06E+03  5.28E-01  1.00E+01  3.50E-01  1.18E+00
   1    6    8     5     1    1.020E+01  -2.562E-01  1.046E+01  0.00E+00  0.00E+00  0.00E+00  1.06E+03  6.79E-01  1.54E+01  6.17E-01 -1.38E-01
   1    7    7     5     2    1.046E+01   7.760E-01  9.682E+00  0.00E+00  0.00E+00  0.00E+00  1.05E+03  6.73E-01  1.52E+01  7.60E-01  3.41E-01
   1    8    7     5     3    9.682E+00   1.074E+00  8.608E+00  0.00E+00  0.00E+00  0.00E+00  1.05E+03  6.51E-01  1.43E+01  5.02E-01  7.13E-01
   1    8    6     5     4    8.608E+00   2.602E-01  8.348E+00  0.00E+00  0.00E+00  0.00E+00  1.05E+03  6.34E-01  1.37E+01  3.43E-01  2.53E-01
   1    9    6     6     1    8.348E+00   1.585E+00  6.763E+00  0.00E+00  0.00E+00  0.00E+00  1.04E+03  5.96E-01  1.20E+01  6.00E-01  8.80E-01
   1   10    7     6     2    6.763E+00   1.351E+00  5.412E+00  0.00E+00  0.00E+00  0.00E+00  1.04E+03  5.23E-01  1.20E+01  6.00E-01  7.51E-01
   1   11    7     6     3    5.412E+00   1.206E+00  4.206E+00  0.00E+00  0.00E+00  0.00E+00  1.03E+03  4.54E-01  1.20E+01  6.00E-01  6.70E-01
   1   12    7     6     4    4.206E+00   5.456E-01  3.660E+00  0.00E+00  0.00E+00  0.00E+00  1.03E+03  4.03E-01  1.20E+01  6.00E-01  3.03E-01
   1   13    7     6     5    3.660E+00  -6.674E-01  4.328E+00  0.00E+00  0.00E+00  0.00E+00  1.03E+03  4.06E-01  1.20E+01  2.40E-01 -9.27E-01
   1   14    9     7     1    1.500E+02   3.033E+00  1.470E+02  0.00E+00  0.00E+00  0.00E+00  1.04E+03  2.28E+00  5.53E+01  5.59E+00  1.81E-01
   1   13    8     7     2    1.470E+02   4.064E+00  1.429E+02  0.00E+00  0.00E+00  0.00E+00  1.03E+03  2.26E+00  5.52E+01  6.14E+00  2.21E-01
   1   13    7     7     3    1.429E+02   3.164E+00  1.397E+02  0.00E+00  0.00E+00  0.00E+00  1.03E+03  2.24E+00  5.51E+01  5.57E+00  1.89E-01
   1   13    6     8     1    1.441E+02   1.510E+00  1.426E+02  0.00E+00  0.00E+00  0.00E+00  1.02E+03  2.77E+00  4.02E+01  4.09E+00  1.23E-01
   1   13    5     8     2    1.426E+02  -1.240E+00  1.438E+02  0.00E+00  0.00E+00  0.00E+00  1.02E+03  2.77E+00  4.01E+01  4.09E+00 -1.01E-01
   1   13    4     8     3    1.438E+02  -2.983E+00  1.468E+02  0.00E+00  0.00E+00  0.00E+00  1.01E+03  2.78E+00  4.04E+01  4.11E+00 -2.42E-01
   1   13    3     8     4    1.468E+02  -3.106E+00  1.499E+02  0.00E+00  0.00E+00  0.00E+00  1.01E+03  2.81E+00  4.07E+01  4.14E+00 -2.50E-01
   1   13    2     8     5    1.499E+02  -1.177E+00  1.511E+02  0.00E+00  0.00E+00  0.00E+00  1.00E+03  2.82E+00  4.09E+01  4.17E+00 -9.41E-02
   1   13    1     8     6    1.511E+02   4.561E-01  1.506E+02  0.00E+00  0.00E+00  0.00E+00  9.95E+02  2.82E+00  4.09E+01  2.50E+00  6.08E-02



1
              HEAD IN LAYER   1 AT END OF TIME STEP   1 IN STRESS PERIOD    1
  ---------------------------------------------------------------------------

           1       2       3       4       5       6       7       8       9      10
 ...................................................................................
   1  1092.89 1089.40 6999.00 6999.00 6999.00 6999.00 6999.00 6999.00 6999.00 6999.00
   2  1089.90 1086.71 1081.41 6999.00 6999.00 1072.27 1071.48 1071.08 6999.00 6999.00
   3  6999.00 1079.40 1077.52 1073.59 1072.50 1070.60 1069.12 1068.33 6999.00 6999.00
   4  1069.09 1070.68 1070.19 1066.97 1065.43 1063.60 1063.89 1065.91 1066.09 6999.00
   5  1064.89 1063.90 1062.85 1061.15 1060.50 1060.70 1060.19 1062.01 1065.69 1068.10
   6  1059.80 1058.29 1056.94 1054.27 1054.34 1056.58 1057.16 1059.09 1061.90 1065.60
   7  1056.10 1052.99 1051.42 1048.80 1049.10 1051.52 1053.15 1055.48 1056.50 6999.00
   8  6999.00 1046.29 1045.44 1043.08 1043.57 1046.12 1047.76 1049.89 1050.40 6999.00
   9  6999.00 1039.08 1038.85 1037.09 1037.86 1040.68 1041.56 1042.89 1044.00 6999.00
  10  6999.00 1031.09 1031.59 1031.16 1032.39 1035.11 1036.45 1037.60 1039.30 1041.60
  11  6999.00 1021.40 1023.06 1026.51 1028.40 1030.42 1032.08 1033.59 1035.70 6999.00
  12  1001.20 1009.21 1014.50 1019.56 1023.07 1026.18 1028.58 1030.40 1034.30 6999.00
  13   994.52  999.98 1006.68 1012.88 1018.70 1024.28 1029.10 1034.10 1036.10 6999.00
  14  6999.00 1004.00 1008.99 1013.70 1018.90 1024.01 1029.50 1035.10 1039.32 6999.00
  15  6999.00 6999.00 1011.90 1015.10 1019.10 1022.40 6999.00 6999.00 6999.00 6999.00
1
  VOLUMETRIC BUDGET FOR ENTIRE MODEL AT END OF TIME STEP  1 IN STRESS PERIOD   1
  ------------------------------------------------------------------------------

     CUMULATIVE VOLUMES      L**3       RATES FOR THIS TIME STEP      L**3/T
     ------------------                 ------------------------

           IN:                                      IN:
           ---                                      ---
             STORAGE =   132175136.0000               STORAGE =          97.4979
       CONSTANT HEAD =           0.0000         CONSTANT HEAD =           0.0000
               WELLS =           0.0000                 WELLS =           0.0000
                  ET =           0.0000                    ET =           0.0000
     HEAD DEP BOUNDS =      292534.0620       HEAD DEP BOUNDS =           0.2158
            RECHARGE =     2431736.7500              RECHARGE =           1.7937
      STREAM LEAKAGE =    59408236.0000        STREAM LEAKAGE =          43.8220

            TOTAL IN =   194307648.0000              TOTAL IN =         143.3294

          OUT:                                     OUT:
          ----                                     ----
             STORAGE =      739746.1250               STORAGE =           0.5457
       CONSTANT HEAD =           0.0000         CONSTANT HEAD =           0.0000
               WELLS =   135567216.0000                 WELLS =         100.0000
                  ET =    44908460.0000                    ET =          33.1263
     HEAD DEP BOUNDS =      335652.7190       HEAD DEP BOUNDS =           0.2476
            RECHARGE =           0.0000              RECHARGE =           0.0000
      STREAM LEAKAGE =    12783134.0000        STREAM LEAKAGE =           9.4294

           TOTAL OUT =   194334208.0000             TOTAL OUT =         143.3490

            IN - OUT =      -26566.0312              IN - OUT =      -1.9593E-02

 PERCENT DISCREPANCY =          -0.01     PERCENT DISCREPANCY =          -0.01






          TIME SUMMARY AT END OF TIME STEP   1 IN STRESS PERIOD    1
                    SECONDS     MINUTES      HOURS       DAYS        YEARS
                    -----------------------------------------------------------
   TIME STEP LENGTH 1.35567E+06  22595.      376.58      15.691     4.29587E-02
 STRESS PERIOD TIME 1.35567E+06  22595.      376.58      15.691     4.29587E-02
         TOTAL TIME 1.35567E+06  22595.      376.58      15.691     4.29587E-02
1
 
 SOLVING FOR HEAD 
     6 ITERATIONS FOR TIME STEP   2 IN STRESS PERIOD    1

 MAXIMUM HEAD CHANGE FOR EACH ITERATION:

    HEAD CHANGE   HEAD CHANGE   HEAD CHANGE   HEAD CHANGE   HEAD CHANGE
  LAYER,ROW,COL LAYER,ROW,COL LAYER,ROW,COL LAYER,ROW,COL LAYER,ROW,COL
 ----------------------------------------------------------------------
     -1.866       -0.4287       -0.8996E-01   -0.1848E-01   -0.3705E-02
  (  1,  8,  4) (  1,  8,  4) (  1,  8,  4) (  1,  8,  4) (  1,  8,  4)
    -0.7244E-03
  (  1,  8,  4)


 NO OUTPUT CONTROL FOR STRESS PERIOD    1   TIME STEP   2
 
 SOLVING FOR HEAD 
     6 ITERATIONS FOR TIME STEP   3 IN STRESS PERIOD    1

 MAXIMUM HEAD CHANGE FOR EACH ITERATION:

    HEAD CHANGE   HEAD CHANGE   HEAD CHANGE   HEAD CHANGE   HEAD CHANGE
  LAYER,ROW,COL LAYER,ROW,COL LAYER,ROW,COL LAYER,ROW,COL LAYER,ROW,COL
 ----------------------------------------------------------------------
     -1.819       -0.4241       -0.9004E-01   -0.1862E-01   -0.3751E-02
  (  1,  8,  4) (  1,  8,  4) (  1,  8,  4) (  1,  8,  4) (  1,  8,  4)
    -0.7335E-03
  (  1,  8,  4)


 NO OUTPUT CONTROL FOR STRESS PERIOD    1   TIME STEP   3
 
 SOLVING FOR HEAD 
     6 ITERATIONS FOR TIME STEP   4 IN STRESS PERIOD    1

 MAXIMUM HEAD CHANGE FOR EACH ITERATION:

    HEAD CHANGE   HEAD CHANGE   HEAD CHANGE   HEAD CHANGE   HEAD CHANGE
  LAYER,ROW,COL LAYER,ROW,COL LAYER,ROW,COL LAYER,ROW,COL LAYER,ROW,COL
 ----------------------------------------------------------------------
     -1.751       -0.4169       -0.8959E-01   -0.1870E-01   -0.3786E-02
  (  1,  8,  4) (  1,  8,  4) (  1,  8,  4) (  1,  8,  4) (  1,  8,  4)
    -0.7387E-03
  (  1,  8,  4)


 NO OUTPUT CONTROL FOR STRESS PERIOD    1   TIME STEP   4
 
 SOLVING FOR HEAD 
     6 ITERATIONS FOR TIME STEP   5 IN STRESS PERIOD    1

 MAXIMUM HEAD CHANGE FOR EACH ITERATION:

    HEAD CHANGE   HEAD CHANGE   HEAD CHANGE   HEAD CHANGE   HEAD CHANGE
  LAYER,ROW,COL LAYER,ROW,COL LAYER,ROW,COL LAYER,ROW,COL LAYER,ROW,COL
 ----------------------------------------------------------------------
     -1.671       -0.4089       -0.8933E-01   -0.1877E-01   -0.3819E-02
  (  1,  8,  4) (  1,  8,  4) (  1,  8,  4) (  1,  8,  4) (  1,  8,  4)
    -0.7428E-03
  (  1,  8,  4)


 OUTPUT CONTROL FOR STRESS PERIOD    1   TIME STEP   5
    PRINT BUDGET
    PRINT HEAD FOR ALL LAYERS
    SAVE BUDGET

            WELLS   PERIOD    1   STEP   5
 WELL      1   LAYER   1   ROW     6   COL     4   RATE    -10.0000    
 WELL      2   LAYER   1   ROW     6   COL     5   RATE    -10.0000    
 WELL      3   LAYER   1   ROW     7   COL     4   RATE    -10.0000    
 WELL      4   LAYER   1   ROW     7   COL     5   RATE    -10.0000    
 WELL      5   LAYER   1   ROW     8   COL     4   RATE    -10.0000    
 WELL      6   LAYER   1   ROW     8   COL     5   RATE    -10.0000    
 WELL      7   LAYER   1   ROW     9   COL     4   RATE    -10.0000    
 WELL      8   LAYER   1   ROW     9   COL     5   RATE    -10.0000    
 WELL      9   LAYER   1   ROW    10   COL     4   RATE    -10.0000    
 WELL     10   LAYER   1   ROW    10   COL     5   RATE    -10.0000    
 UBUDSV SAVING "              ET" ON UNIT 59 AT TIME STEP  5, STRESS PERIOD    1

  HEAD DEP BOUNDS   PERIOD    1   STEP   5
 BOUNDARY      1   LAYER   1   ROW    13   COL     1   RATE   -0.247344    
 BOUNDARY      2   LAYER   1   ROW    14   COL     9   RATE    0.215279    



   STREAM LEAKAGE   PERIOD    1   STEP   5

 LAYER ROW COL. STREAM  RCH.  FLOW INTO    FLOW TO  FLOW OUT OF  OVRLND.   DIRECT    STREAM    STREAM    STREAM    STREAM  STREAMBED  STREAMBED
                SEG.NO.  NO.  STRM. RCH.   AQUIFER   STRM. RCH.  RUNOFF    PRECIP      ET       HEAD      DEPTH     WIDTH  CONDCTNC.   GRADIENT

   1    1    1     1     1    2.500E+01   7.912E-01  2.421E+01  0.00E+00  0.00E+00  0.00E+00  1.09E+03  1.17E+00  1.30E+01  5.84E-01  4.51E-01
   1    2    2     1     2    2.421E+01   2.190E+00  2.202E+01  0.00E+00  0.00E+00  0.00E+00  1.09E+03  1.15E+00  1.27E+01  8.88E-01  8.22E-01
   1    3    3     1     3    2.202E+01   2.988E+00  1.903E+01  0.00E+00  0.00E+00  0.00E+00  1.08E+03  1.11E+00  1.21E+01  7.27E-01  1.37E+00
   1    3    4     1     4    1.903E+01   2.550E+00  1.648E+01  0.00E+00  0.00E+00  0.00E+00  1.08E+03  1.06E+00  1.13E+01  6.28E-01  1.35E+00
   1    4    5     2     1    6.481E+00   2.759E+00  3.722E+00  0.00E+00  0.00E+00  0.00E+00  1.07E+03  5.37E-01  1.20E+01  7.80E-01  1.18E+00
   1    5    6     2     2    3.722E+00   2.031E+00  1.691E+00  0.00E+00  0.00E+00  0.00E+00  1.07E+03  3.85E-01  1.20E+01  6.00E-01  1.13E+00
   1    6    6     2     3    1.691E+00   1.691E+00  0.000E+00  0.00E+00  0.00E+00  0.00E+00  1.06E+03  2.40E-01  1.20E+01  6.00E-01  1.08E+00
   1    7    6     2     4    0.000E+00   0.000E+00  0.000E+00  0.00E+00  0.00E+00  0.00E+00  1.06E+03  0.00E+00  1.20E+01  6.00E-01  1.00E+00
   1    8    6     2     5    0.000E+00   0.000E+00  0.000E+00  0.00E+00  0.00E+00  0.00E+00  1.05E+03  0.00E+00  1.20E+01  6.00E-01  1.00E+00
   1    3    5     3     1    1.000E+01   2.324E+00  7.676E+00  0.00E+00  0.00E+00  0.00E+00  1.08E+03  1.91E+00  9.64E+00  7.23E-01  1.61E+00
   1    3    6     3     2    7.676E+00   1.406E+00  6.270E+00  0.00E+00  0.00E+00  0.00E+00  1.07E+03  1.73E+00  8.91E+00  6.68E-01  1.05E+00
   1    3    7     3     3    6.270E+00   4.077E-01  5.863E+00  0.00E+00  0.00E+00  0.00E+00  1.07E+03  1.55E+00  8.22E+00  5.55E-01  3.68E-01
   1    4    8     3     4    5.863E+00   6.209E-01  5.242E+00  0.00E+00  0.00E+00  0.00E+00  1.07E+03  1.36E+00  7.45E+00  6.71E-01  4.63E-01
   1    5    8     3     5    5.242E+00   8.762E-01  4.365E+00  0.00E+00  0.00E+00  0.00E+00  1.06E+03  1.16E+00  6.65E+00  4.99E-01  8.78E-01
   1    6    8     3     6    4.365E+00   5.025E-01  3.863E+00  0.00E+00  0.00E+00  0.00E+00  1.06E+03  1.04E+00  6.15E+00  1.84E-01  1.36E+00
   1    5   10     4     1    1.000E+01   9.096E-01  9.090E+00  0.00E+00  0.00E+00  0.00E+00  1.08E+03  6.39E-01  1.00E+01  2.50E-01  1.21E+00
   1    5    9     4     2    9.090E+00   1.802E+00  7.289E+00  0.00E+00  0.00E+00  0.00E+00  1.07E+03  6.03E-01  1.00E+01  5.00E-01  1.20E+00
   1    6    8     4     3    7.289E+00   1.235E+00  6.054E+00  0.00E+00  0.00E+00  0.00E+00  1.06E+03  5.28E-01  1.00E+01  3.50E-01  1.18E+00
   1    6    8     5     1    9.917E+00  -1.119E-01  1.003E+01  0.00E+00  0.00E+00  0.00E+00  1.06E+03  6.71E-01  1.51E+01  6.04E-01 -6.17E-02
   1    7    7     5     2    1.003E+01   1.426E+00  8.603E+00  0.00E+00  0.00E+00  0.00E+00  1.05E+03  6.55E-01  1.45E+01  7.25E-01  6.55E-01
   1    8    7     5     3    8.603E+00   1.484E+00  7.120E+00  0.00E+00  0.00E+00  0.00E+00  1.05E+03  6.17E-01  1.31E+01  4.58E-01  1.08E+00
   1    8    6     5     4    7.120E+00   1.055E+00  6.065E+00  0.00E+00  0.00E+00  0.00E+00  1.05E+03  5.80E-01  1.18E+01  2.95E-01  1.19E+00
   1    9    6     6     1    6.065E+00   2.113E+00  3.952E+00  0.00E+00  0.00E+00  0.00E+00  1.04E+03  5.22E-01  1.20E+01  6.00E-01  1.17E+00
   1   10    7     6     2    3.952E+00   1.756E+00  2.196E+00  0.00E+00  0.00E+00  0.00E+00  1.04E+03  3.47E-01  1.20E+01  6.00E-01  9.75E-01
   1   11    7     6     3    2.196E+00   1.348E+00  8.484E-01  0.00E+00  0.00E+00  0.00E+00  1.03E+03  2.28E-01  1.20E+01  6.00E-01  7.49E-01
   1   12    7     6     4    8.484E-01   5.143E-01  3.341E-01  0.00E+00  0.00E+00  0.00E+00  1.03E+03  1.29E-01  1.20E+01  6.00E-01  2.86E-01
   1   13    7     6     5    3.341E-01  -7.235E-01  1.058E+00  0.00E+00  0.00E+00  0.00E+00  1.03E+03  1.42E-01  1.20E+01  2.40E-01 -1.00E+00
   1   14    9     7     1    1.500E+02   2.960E+00  1.470E+02  0.00E+00  0.00E+00  0.00E+00  1.04E+03  2.28E+00  5.53E+01  5.59E+00  1.76E-01
   1   13    8     7     2    1.470E+02   4.070E+00  1.430E+02  0.00E+00  0.00E+00  0.00E+00  1.03E+03  2.26E+00  5.52E+01  6.14E+00  2.21E-01
   1   13    7     7     3    1.430E+02   3.331E+00  1.396E+02  0.00E+00  0.00E+00  0.00E+00  1.03E+03  2.24E+00  5.51E+01  5.57E+00  1.99E-01
   1   13    6     8     1    1.407E+02   1.741E+00  1.390E+02  0.00E+00  0.00E+00  0.00E+00  1.02E+03  2.74E+00  3.98E+01  4.05E+00  1.43E-01
   1   13    5     8     2    1.390E+02  -8.799E-01  1.398E+02  0.00E+00  0.00E+00  0.00E+00  1.02E+03  2.74E+00  3.97E+01  4.05E+00 -7.24E-02
   1   13    4     8     3    1.398E+02  -2.617E+00  1.425E+02  0.00E+00  0.00E+00  0.00E+00  1.01E+03  2.75E+00  3.99E+01  4.07E+00 -2.14E-01
   1   13    3     8     4    1.425E+02  -2.951E+00  1.454E+02  0.00E+00  0.00E+00  0.00E+00  1.01E+03  2.77E+00  4.02E+01  4.10E+00 -2.40E-01
   1   13    2     8     5    1.454E+02  -1.127E+00  1.465E+02  0.00E+00  0.00E+00  0.00E+00  1.00E+03  2.79E+00  4.04E+01  4.12E+00 -9.12E-02
   1   13    1     8     6    1.465E+02   3.879E-01  1.461E+02  0.00E+00  0.00E+00  0.00E+00  9.95E+02  2.79E+00  4.05E+01  2.47E+00  5.23E-02



1
              HEAD IN LAYER   1 AT END OF TIME STEP   5 IN STRESS PERIOD    1
  ---------------------------------------------------------------------------

           1       2       3       4       5       6       7       8       9      10
 ...................................................................................
   1  1092.87 1089.42 6999.00 6999.00 6999.00 6999.00 6999.00 6999.00 6999.00 6999.00
   2  1089.89 1086.74 1081.42 6999.00 6999.00 1072.13 1071.37 1070.99 6999.00 6999.00
   3  6999.00 1079.40 1077.45 1073.29 1072.33 1070.53 1069.14 1068.41 6999.00 6999.00
   4  1069.01 1070.57 1069.81 1065.95 1064.45 1063.01 1063.67 1065.89 1066.04 6999.00
   5  1064.84 1063.71 1061.67 1058.19 1057.97 1059.39 1059.66 1061.86 1065.65 1068.11
   6  1059.76 1057.83 1054.16 1047.44 1048.48 1054.02 1056.29 1058.86 1061.87 1065.59
   7  1056.07 1052.41 1047.97 1040.14 1041.73 1048.28 1052.19 1055.15 1056.46 6999.00
   8  6999.00 1045.75 1041.99 1033.85 1035.83 1042.92 1046.63 1049.64 1050.39 6999.00
   9  6999.00 1038.57 1035.63 1028.28 1030.63 1037.67 1040.42 1042.66 1044.00 6999.00
  10  6999.00 1030.73 1029.19 1024.24 1026.70 1032.66 1035.60 1037.44 1039.29 1041.59
  11  6999.00 1021.28 1022.13 1023.80 1026.02 1029.21 1031.62 1033.48 1035.70 6999.00
  12  1001.18 1009.18 1014.22 1018.78 1022.32 1025.73 1028.36 1030.35 1034.29 6999.00
  13   994.51  999.94 1006.62 1012.77 1018.58 1024.19 1029.07 1034.10 1036.12 6999.00
  14  6999.00 1004.00 1008.97 1013.69 1018.87 1024.01 1029.48 1035.09 1039.33 6999.00
  15  6999.00 6999.00 1011.91 1015.10 1019.11 1022.39 6999.00 6999.00 6999.00 6999.00
1
  VOLUMETRIC BUDGET FOR ENTIRE MODEL AT END OF TIME STEP  5 IN STRESS PERIOD   1
  ------------------------------------------------------------------------------

     CUMULATIVE VOLUMES      L**3       RATES FOR THIS TIME STEP      L**3/T
     ------------------                 ------------------------

           IN:                                      IN:
           ---                                      ---
             STORAGE =   762100224.0000               STORAGE =          87.3116
       CONSTANT HEAD =           0.0000         CONSTANT HEAD =           0.0000
               WELLS =           0.0000                 WELLS =           0.0000
                  ET =           0.0000                    ET =           0.0000
     HEAD DEP BOUNDS =     1782862.6200       HEAD DEP BOUNDS =           0.2153
            RECHARGE =    14845997.0000              RECHARGE =           1.7937
      STREAM LEAKAGE =   377564288.0000        STREAM LEAKAGE =          47.2674

            TOTAL IN =  1156293380.0000              TOTAL IN =         136.5880

          OUT:                                     OUT:
          ----                                     ----
             STORAGE =     1696472.2500               STORAGE =       5.0277E-02
       CONSTANT HEAD =           0.0000         CONSTANT HEAD =           0.0000
               WELLS =   827651456.0000                 WELLS =         100.0000
                  ET =   251015824.0000                    ET =          27.9070
     HEAD DEP BOUNDS =     2049445.8800       HEAD DEP BOUNDS =           0.2473
            RECHARGE =           0.0000              RECHARGE =           0.0000
      STREAM LEAKAGE =    74050136.0000        STREAM LEAKAGE =           8.4101

           TOTAL OUT =  1156463360.0000             TOTAL OUT =         136.6147

            IN - OUT =     -169962.5000              IN - OUT =      -2.6702E-02

 PERCENT DISCREPANCY =          -0.01     PERCENT DISCREPANCY =          -0.02






          TIME SUMMARY AT END OF TIME STEP   5 IN STRESS PERIOD    1
                    SECONDS     MINUTES      HOURS       DAYS        YEARS
                    -----------------------------------------------------------
   TIME STEP LENGTH 1.98484E+06  33081.      551.34      22.973     6.28958E-02
 STRESS PERIOD TIME 8.27652E+06 1.37942E+05  2299.0      95.793     0.26227    
         TOTAL TIME 8.27652E+06 1.37942E+05  2299.0      95.793     0.26227    
1
 
 SOLVING FOR HEAD 
     7 ITERATIONS FOR TIME STEP   6 IN STRESS PERIOD    1

 MAXIMUM HEAD CHANGE FOR EACH ITERATION:

    HEAD CHANGE   HEAD CHANGE   HEAD CHANGE   HEAD CHANGE   HEAD CHANGE
  LAYER,ROW,COL LAYER,ROW,COL LAYER,ROW,COL LAYER,ROW,COL LAYER,ROW,COL
 ----------------------------------------------------------------------
     -1.592       -0.4016       -0.8949E-01   -0.1897E-01   -0.6056E-02
  (  1,  8,  4) (  1,  8,  4) (  1,  8,  4) (  1,  8,  4) (  1, 12,  7)
    -0.1774E-02   -0.4500E-03
  (  1, 12,  7) (  1, 12,  7)


 NO OUTPUT CONTROL FOR STRESS PERIOD    1   TIME STEP   6
 
 SOLVING FOR HEAD 
     7 ITERATIONS FOR TIME STEP   7 IN STRESS PERIOD    1

 MAXIMUM HEAD CHANGE FOR EACH ITERATION:

    HEAD CHANGE   HEAD CHANGE   HEAD CHANGE   HEAD CHANGE   HEAD CHANGE
  LAYER,ROW,COL LAYER,ROW,COL LAYER,ROW,COL LAYER,ROW,COL LAYER,ROW,COL
 ----------------------------------------------------------------------
     -1.517       -0.3965       -0.9027E-01   -0.1932E-01   -0.4789E-02
  (  1,  8,  4) (  1,  8,  4) (  1,  8,  4) (  1,  8,  4) (  1, 11,  7)
    -0.1153E-02   -0.3065E-03
  (  1, 11,  7) (  1, 11,  7)


 NO OUTPUT CONTROL FOR STRESS PERIOD    1   TIME STEP   7
 
 SOLVING FOR HEAD 
     7 ITERATIONS FOR TIME STEP   8 IN STRESS PERIOD    1

 MAXIMUM HEAD CHANGE FOR EACH ITERATION:

    HEAD CHANGE   HEAD CHANGE   HEAD CHANGE   HEAD CHANGE   HEAD CHANGE
  LAYER,ROW,COL LAYER,ROW,COL LAYER,ROW,COL LAYER,ROW,COL LAYER,ROW,COL
 ----------------------------------------------------------------------
     -1.450       -0.3941       -0.9229E-01   -0.2004E-01   -0.5392E-02
  (  1,  8,  4) (  1,  8,  4) (  1,  8,  5) (  1,  8,  5) (  1, 11,  7)
    -0.1347E-02   -0.3991E-03
  (  1, 11,  7) (  1, 11,  7)


 NO OUTPUT CONTROL FOR STRESS PERIOD    1   TIME STEP   8
 
 SOLVING FOR HEAD 
     6 ITERATIONS FOR TIME STEP   9 IN STRESS PERIOD    1

 MAXIMUM HEAD CHANGE FOR EACH ITERATION:

    HEAD CHANGE   HEAD CHANGE   HEAD CHANGE   HEAD CHANGE   HEAD CHANGE
  LAYER,ROW,COL LAYER,ROW,COL LAYER,ROW,COL LAYER,ROW,COL LAYER,ROW,COL
 ----------------------------------------------------------------------
     -1.392       -0.3949       -0.9659E-01   -0.2134E-01   -0.4509E-02
  (  1,  8,  4) (  1,  8,  4) (  1,  8,  5) (  1,  8,  5) (  1,  8,  5)
    -0.9288E-03
  (  1, 11,  7)


 NO OUTPUT CONTROL FOR STRESS PERIOD    1   TIME STEP   9
 
 SOLVING FOR HEAD 
     7 ITERATIONS FOR TIME STEP  10 IN STRESS PERIOD    1

 MAXIMUM HEAD CHANGE FOR EACH ITERATION:

    HEAD CHANGE   HEAD CHANGE   HEAD CHANGE   HEAD CHANGE   HEAD CHANGE
  LAYER,ROW,COL LAYER,ROW,COL LAYER,ROW,COL LAYER,ROW,COL LAYER,ROW,COL
 ----------------------------------------------------------------------
     -1.343       -0.3991       -0.1033       -0.2298E-01   -0.5085E-02
  (  1,  8,  4) (  1,  8,  4) (  1,  8,  5) (  1,  8,  5) (  1, 10,  7)
    -0.1164E-02   -0.3306E-03
  (  1, 10,  7) (  1, 10,  7)


 OUTPUT CONTROL FOR STRESS PERIOD    1   TIME STEP  10
    PRINT BUDGET
    PRINT HEAD FOR ALL LAYERS
    SAVE BUDGET

            WELLS   PERIOD    1   STEP  10
 WELL      1   LAYER   1   ROW     6   COL     4   RATE    -10.0000    
 WELL      2   LAYER   1   ROW     6   COL     5   RATE    -10.0000    
 WELL      3   LAYER   1   ROW     7   COL     4   RATE    -10.0000    
 WELL      4   LAYER   1   ROW     7   COL     5   RATE    -10.0000    
 WELL      5   LAYER   1   ROW     8   COL     4   RATE    -10.0000    
 WELL      6   LAYER   1   ROW     8   COL     5   RATE    -10.0000    
 WELL      7   LAYER   1   ROW     9   COL     4   RATE    -10.0000    
 WELL      8   LAYER   1   ROW     9   COL     5   RATE    -10.0000    
 WELL      9   LAYER   1   ROW    10   COL     4   RATE    -10.0000    
 WELL     10   LAYER   1   ROW    10   COL     5   RATE    -10.0000    
 UBUDSV SAVING "              ET" ON UNIT 59 AT TIME STEP 10, STRESS PERIOD    1

  HEAD DEP BOUNDS   PERIOD    1   STEP  10
 BOUNDARY      1   LAYER   1   ROW    13   COL     1   RATE   -0.245866    
 BOUNDARY      2   LAYER   1   ROW    14   COL     9   RATE    0.215280    



   STREAM LEAKAGE   PERIOD    1   STEP  10

 LAYER ROW COL. STREAM  RCH.  FLOW INTO    FLOW TO  FLOW OUT OF  OVRLND.   DIRECT    STREAM    STREAM    STREAM    STREAM  STREAMBED  STREAMBED
                SEG.NO.  NO.  STRM. RCH.   AQUIFER   STRM. RCH.  RUNOFF    PRECIP      ET       HEAD      DEPTH     WIDTH  CONDCTNC.   GRADIENT

   1    1    1     1     1    2.500E+01   7.980E-01  2.420E+01  0.00E+00  0.00E+00  0.00E+00  1.09E+03  1.17E+00  1.30E+01  5.84E-01  4.55E-01
   1    2    2     1     2    2.420E+01   2.251E+00  2.195E+01  0.00E+00  0.00E+00  0.00E+00  1.09E+03  1.15E+00  1.27E+01  8.87E-01  8.46E-01
   1    3    3     1     3    2.195E+01   2.983E+00  1.897E+01  0.00E+00  0.00E+00  0.00E+00  1.08E+03  1.11E+00  1.21E+01  7.26E-01  1.37E+00
   1    3    4     1     4    1.897E+01   2.545E+00  1.642E+01  0.00E+00  0.00E+00  0.00E+00  1.08E+03  1.06E+00  1.13E+01  6.27E-01  1.35E+00
   1    4    5     2     1    6.423E+00   2.757E+00  3.666E+00  0.00E+00  0.00E+00  0.00E+00  1.07E+03  5.34E-01  1.20E+01  7.80E-01  1.18E+00
   1    5    6     2     2    3.666E+00   2.029E+00  1.637E+00  0.00E+00  0.00E+00  0.00E+00  1.07E+03  3.82E-01  1.20E+01  6.00E-01  1.13E+00
   1    6    6     2     3    1.637E+00   1.637E+00  0.000E+00  0.00E+00  0.00E+00  0.00E+00  1.06E+03  2.35E-01  1.20E+01  6.00E-01  1.08E+00
   1    7    6     2     4    0.000E+00   0.000E+00  0.000E+00  0.00E+00  0.00E+00  0.00E+00  1.06E+03  0.00E+00  1.20E+01  6.00E-01  1.00E+00
   1    8    6     2     5    0.000E+00   0.000E+00  0.000E+00  0.00E+00  0.00E+00  0.00E+00  1.05E+03  0.00E+00  1.20E+01  6.00E-01  1.00E+00
   1    3    5     3     1    1.000E+01   2.825E+00  7.175E+00  0.00E+00  0.00E+00  0.00E+00  1.08E+03  1.91E+00  9.64E+00  7.23E-01  1.95E+00
   1    3    6     3     2    7.175E+00   1.691E+00  5.484E+00  0.00E+00  0.00E+00  0.00E+00  1.07E+03  1.73E+00  8.91E+00  6.68E-01  1.27E+00
   1    3    7     3     3    5.484E+00   5.142E-01  4.969E+00  0.00E+00  0.00E+00  0.00E+00  1.07E+03  1.55E+00  8.22E+00  5.55E-01  4.63E-01
   1    4    8     3     4    4.969E+00   7.717E-01  4.198E+00  0.00E+00  0.00E+00  0.00E+00  1.07E+03  1.36E+00  7.45E+00  6.71E-01  5.75E-01
   1    5    8     3     5    4.198E+00   1.333E+00  2.865E+00  0.00E+00  0.00E+00  0.00E+00  1.06E+03  1.16E+00  6.65E+00  4.99E-01  1.34E+00
   1    6    8     3     6    2.865E+00   5.598E-01  2.305E+00  0.00E+00  0.00E+00  0.00E+00  1.06E+03  1.04E+00  6.15E+00  1.84E-01  1.52E+00
   1    5   10     4     1    1.000E+01   9.096E-01  9.090E+00  0.00E+00  0.00E+00  0.00E+00  1.08E+03  6.39E-01  1.00E+01  2.50E-01  1.21E+00
   1    5    9     4     2    9.090E+00   1.802E+00  7.289E+00  0.00E+00  0.00E+00  0.00E+00  1.07E+03  6.03E-01  1.00E+01  5.00E-01  1.20E+00
   1    6    8     4     3    7.289E+00   1.235E+00  6.054E+00  0.00E+00  0.00E+00  0.00E+00  1.06E+03  5.28E-01  1.00E+01  3.50E-01  1.18E+00
   1    6    8     5     1    8.359E+00   5.398E-01  7.819E+00  0.00E+00  0.00E+00  0.00E+00  1.06E+03  6.24E-01  1.33E+01  5.33E-01  3.38E-01
   1    7    7     5     2    7.819E+00   2.142E+00  5.677E+00  0.00E+00  0.00E+00  0.00E+00  1.05E+03  5.85E-01  1.19E+01  5.97E-01  1.20E+00
   1    8    7     5     3    5.677E+00   1.241E+00  4.436E+00  0.00E+00  0.00E+00  0.00E+00  1.05E+03  5.29E-01  1.00E+01  3.52E-01  1.18E+00
   1    8    6     5     4    4.436E+00   7.676E-01  3.669E+00  0.00E+00  0.00E+00  0.00E+00  1.05E+03  4.90E-01  8.80E+00  2.20E-01  1.16E+00
   1    9    6     6     1    3.669E+00   2.032E+00  1.637E+00  0.00E+00  0.00E+00  0.00E+00  1.04E+03  3.86E-01  1.20E+01  6.00E-01  1.13E+00
   1   10    7     6     2    1.637E+00   1.637E+00  0.000E+00  0.00E+00  0.00E+00  0.00E+00  1.04E+03  2.38E-01  1.20E+01  6.00E-01  1.08E+00
   1   11    7     6     3    0.000E+00   0.000E+00  0.000E+00  0.00E+00  0.00E+00  0.00E+00  1.03E+03  0.00E+00  1.20E+01  6.00E-01  1.00E+00
   1   12    7     6     4    0.000E+00   0.000E+00  0.000E+00  0.00E+00  0.00E+00  0.00E+00  1.03E+03  6.10E-05  1.20E+01  6.00E-01  7.14E-01
   1   13    7     6     5    0.000E+00  -7.040E-01  7.040E-01  0.00E+00  0.00E+00  0.00E+00  1.03E+03  9.46E-02  1.20E+01  2.40E-01 -9.78E-01
   1   14    9     7     1    1.500E+02   2.959E+00  1.470E+02  0.00E+00  0.00E+00  0.00E+00  1.04E+03  2.28E+00  5.53E+01  5.59E+00  1.76E-01
   1   13    8     7     2    1.470E+02   4.171E+00  1.429E+02  0.00E+00  0.00E+00  0.00E+00  1.03E+03  2.26E+00  5.52E+01  6.14E+00  2.26E-01
   1   13    7     7     3    1.429E+02   4.036E+00  1.388E+02  0.00E+00  0.00E+00  0.00E+00  1.03E+03  2.24E+00  5.51E+01  5.57E+00  2.42E-01
   1   13    6     8     1    1.395E+02   2.614E+00  1.369E+02  0.00E+00  0.00E+00  0.00E+00  1.02E+03  2.73E+00  3.96E+01  4.04E+00  2.16E-01
   1   13    5     8     2    1.369E+02   2.816E-01  1.366E+02  0.00E+00  0.00E+00  0.00E+00  1.02E+03  2.72E+00  3.95E+01  4.02E+00  2.33E-02
   1   13    4     8     3    1.366E+02  -1.563E+00  1.382E+02  0.00E+00  0.00E+00  0.00E+00  1.01E+03  2.73E+00  3.95E+01  4.03E+00 -1.29E-01
   1   13    3     8     4    1.382E+02  -2.412E+00  1.406E+02  0.00E+00  0.00E+00  0.00E+00  1.01E+03  2.74E+00  3.97E+01  4.05E+00 -1.99E-01
   1   13    2     8     5    1.406E+02  -1.042E+00  1.417E+02  0.00E+00  0.00E+00  0.00E+00  1.00E+03  2.75E+00  3.99E+01  4.07E+00 -8.54E-02
   1   13    1     8     6    1.417E+02   3.919E-01  1.413E+02  0.00E+00  0.00E+00  0.00E+00  9.95E+02  2.76E+00  4.00E+01  2.44E+00  5.35E-02



1
              HEAD IN LAYER   1 AT END OF TIME STEP  10 IN STRESS PERIOD    1
  ---------------------------------------------------------------------------

           1       2       3       4       5       6       7       8       9      10
 ...................................................................................
   1  1092.86 1089.41 6999.00 6999.00 6999.00 6999.00 6999.00 6999.00 6999.00 6999.00
   2  1089.87 1086.67 1081.07 6999.00 6999.00 1071.86 1071.18 1070.85 6999.00 6999.00
   3  6999.00 1079.05 1076.49 1071.71 1071.55 1070.11 1068.95 1068.40 6999.00 6999.00
   4  1068.76 1069.84 1067.91 1062.94 1061.55 1060.69 1062.39 1065.67 1065.89 6999.00
   5  1064.47 1062.25 1058.01 1053.19 1053.42 1056.06 1057.56 1060.95 1065.29 1068.00
   6  1059.22 1055.49 1048.40 1040.13 1042.01 1049.37 1053.62 1057.61 1061.44 1065.51
   7  1055.43 1049.49 1040.75 1031.06 1033.80 1042.62 1049.08 1053.39 1056.03 6999.00
   8  6999.00 1042.61 1034.24 1023.98 1027.30 1036.65 1042.48 1047.94 1050.09 6999.00
   9  6999.00 1035.71 1028.43 1019.03 1022.68 1031.80 1036.40 1041.09 1043.77 6999.00
  10  6999.00 1028.60 1023.65 1016.96 1020.33 1027.97 1032.39 1036.13 1039.06 1041.56
  11  6999.00 1020.18 1019.13 1019.24 1021.87 1026.04 1028.96 1032.49 1035.52 6999.00
  12  1001.10 1008.76 1013.07 1016.80 1020.36 1024.13 1026.95 1029.94 1034.22 6999.00
  13   994.47  999.88 1006.46 1012.49 1018.28 1023.96 1028.94 1034.09 1036.12 6999.00
  14  6999.00 1003.99 1008.89 1013.58 1018.75 1023.93 1029.43 1035.09 1039.33 6999.00
  15  6999.00 6999.00 1011.90 1015.08 1019.10 1022.38 6999.00 6999.00 6999.00 6999.00
1
  VOLUMETRIC BUDGET FOR ENTIRE MODEL AT END OF TIME STEP 10 IN STRESS PERIOD   1
  ------------------------------------------------------------------------------

     CUMULATIVE VOLUMES      L**3       RATES FOR THIS TIME STEP      L**3/T
     ------------------                 ------------------------

           IN:                                      IN:
           ---                                      ---
             STORAGE =  1839746690.0000               STORAGE =          77.3877
       CONSTANT HEAD =           0.0000         CONSTANT HEAD =           0.0000
               WELLS =           0.0000                 WELLS =           0.0000
                  ET =           0.0000                    ET =           0.0000
     HEAD DEP BOUNDS =     4652304.0000       HEAD DEP BOUNDS =           0.2153
            RECHARGE =    38755624.0000              RECHARGE =           1.7937
      STREAM LEAKAGE =  1024739840.0000        STREAM LEAKAGE =          49.4541

            TOTAL IN =  2907894530.0000              TOTAL IN =         128.8508

          OUT:                                     OUT:
          ----                                     ----
             STORAGE =     1790008.6200               STORAGE =           0.0000
       CONSTANT HEAD =           0.0000         CONSTANT HEAD =           0.0000
               WELLS =  2160592380.0000                 WELLS =         100.0000
                  ET =   577613120.0000                    ET =          22.8853
     HEAD DEP BOUNDS =     5334157.0000       HEAD DEP BOUNDS =           0.2459
            RECHARGE =           0.0000              RECHARGE =           0.0000
      STREAM LEAKAGE =   162876144.0000        STREAM LEAKAGE =           5.7208

           TOTAL OUT =  2908205820.0000             TOTAL OUT =         128.8519

            IN - OUT =     -311357.6250              IN - OUT =      -1.1200E-03

 PERCENT DISCREPANCY =          -0.01     PERCENT DISCREPANCY =           0.00






          TIME SUMMARY AT END OF TIME STEP  10 IN STRESS PERIOD    1
                    SECONDS     MINUTES      HOURS       DAYS        YEARS
                    -----------------------------------------------------------
   TIME STEP LENGTH 3.19660E+06  53277.      887.95      36.998     0.10129    
 STRESS PERIOD TIME 2.16059E+07 3.60099E+05  6001.6      250.07     0.68465    
         TOTAL TIME 2.16059E+07 3.60099E+05  6001.6      250.07     0.68465    
1
 
 SOLVING FOR HEAD 
     7 ITERATIONS FOR TIME STEP  11 IN STRESS PERIOD    1

 MAXIMUM HEAD CHANGE FOR EACH ITERATION:

    HEAD CHANGE   HEAD CHANGE   HEAD CHANGE   HEAD CHANGE   HEAD CHANGE
  LAYER,ROW,COL LAYER,ROW,COL LAYER,ROW,COL LAYER,ROW,COL LAYER,ROW,COL
 ----------------------------------------------------------------------
     -1.332       -0.4083       -0.1111       -0.2515E-01   -0.6200E-02
  (  1,  8,  3) (  1,  8,  5) (  1,  8,  5) (  1,  8,  5) (  1, 10,  7)
    -0.1338E-02   -0.4109E-03
  (  1, 10,  7) (  1, 10,  7)


 NO OUTPUT CONTROL FOR STRESS PERIOD    1   TIME STEP  11
 
 SOLVING FOR HEAD 
     7 ITERATIONS FOR TIME STEP  12 IN STRESS PERIOD    1

 MAXIMUM HEAD CHANGE FOR EACH ITERATION:

    HEAD CHANGE   HEAD CHANGE   HEAD CHANGE   HEAD CHANGE   HEAD CHANGE
  LAYER,ROW,COL LAYER,ROW,COL LAYER,ROW,COL LAYER,ROW,COL LAYER,ROW,COL
 ----------------------------------------------------------------------
     -1.351       -0.4263       -0.1201       -0.2766E-01   -0.6301E-02
  (  1,  8,  3) (  1,  8,  5) (  1,  8,  5) (  1,  8,  5) (  1, 10,  7)
    -0.1417E-02   -0.4204E-03
  (  1, 10,  7) (  1, 10,  7)


 NO OUTPUT CONTROL FOR STRESS PERIOD    1   TIME STEP  12
 
 SOLVING FOR HEAD 
     7 ITERATIONS FOR TIME STEP  13 IN STRESS PERIOD    1

 MAXIMUM HEAD CHANGE FOR EACH ITERATION:

    HEAD CHANGE   HEAD CHANGE   HEAD CHANGE   HEAD CHANGE   HEAD CHANGE
  LAYER,ROW,COL LAYER,ROW,COL LAYER,ROW,COL LAYER,ROW,COL LAYER,ROW,COL
 ----------------------------------------------------------------------
     -1.365       -0.4464       -0.1306       -0.3074E-01   -0.7266E-02
  (  1,  8,  3) (  1,  8,  5) (  1,  8,  5) (  1,  8,  5) (  1, 10,  7)
    -0.1650E-02   -0.4965E-03
  (  1, 10,  7) (  1, 10,  7)


 OUTPUT CONTROL FOR STRESS PERIOD    1   TIME STEP  13
    PRINT BUDGET
    PRINT HEAD FOR ALL LAYERS
    SAVE BUDGET

            WELLS   PERIOD    1   STEP  13
 WELL      1   LAYER   1   ROW     6   COL     4   RATE    -10.0000    
 WELL      2   LAYER   1   ROW     6   COL     5   RATE    -10.0000    
 WELL      3   LAYER   1   ROW     7   COL     4   RATE    -10.0000    
 WELL      4   LAYER   1   ROW     7   COL     5   RATE    -10.0000    
 WELL      5   LAYER   1   ROW     8   COL     4   RATE    -10.0000    
 WELL      6   LAYER   1   ROW     8   COL     5   RATE    -10.0000    
 WELL      7   LAYER   1   ROW     9   COL     4   RATE    -10.0000    
 WELL      8   LAYER   1   ROW     9   COL     5   RATE    -10.0000    
 WELL      9   LAYER   1   ROW    10   COL     4   RATE    -10.0000    
 WELL     10   LAYER   1   ROW    10   COL     5   RATE    -10.0000    
 UBUDSV SAVING "              ET" ON UNIT 59 AT TIME STEP 13, STRESS PERIOD    1

  HEAD DEP BOUNDS   PERIOD    1   STEP  13
 BOUNDARY      1   LAYER   1   ROW    13   COL     1   RATE   -0.244627    
 BOUNDARY      2   LAYER   1   ROW    14   COL     9   RATE    0.215323    



   STREAM LEAKAGE   PERIOD    1   STEP  13

 LAYER ROW COL. STREAM  RCH.  FLOW INTO    FLOW TO  FLOW OUT OF  OVRLND.   DIRECT    STREAM    STREAM    STREAM    STREAM  STREAMBED  STREAMBED
                SEG.NO.  NO.  STRM. RCH.   AQUIFER   STRM. RCH.  RUNOFF    PRECIP      ET       HEAD      DEPTH     WIDTH  CONDCTNC.   GRADIENT

   1    1    1     1     1    2.500E+01   8.049E-01  2.420E+01  0.00E+00  0.00E+00  0.00E+00  1.09E+03  1.17E+00  1.30E+01  5.84E-01  4.59E-01
   1    2    2     1     2    2.420E+01   2.418E+00  2.178E+01  0.00E+00  0.00E+00  0.00E+00  1.09E+03  1.15E+00  1.27E+01  8.86E-01  9.10E-01
   1    3    3     1     3    2.178E+01   2.972E+00  1.881E+01  0.00E+00  0.00E+00  0.00E+00  1.08E+03  1.11E+00  1.21E+01  7.24E-01  1.37E+00
   1    3    4     1     4    1.881E+01   2.532E+00  1.627E+01  0.00E+00  0.00E+00  0.00E+00  1.08E+03  1.06E+00  1.12E+01  6.24E-01  1.35E+00
   1    4    5     2     1    6.273E+00   2.751E+00  3.522E+00  0.00E+00  0.00E+00  0.00E+00  1.07E+03  5.27E-01  1.20E+01  7.80E-01  1.18E+00
   1    5    6     2     2    3.522E+00   2.024E+00  1.499E+00  0.00E+00  0.00E+00  0.00E+00  1.07E+03  3.73E-01  1.20E+01  6.00E-01  1.12E+00
   1    6    6     2     3    1.499E+00   1.499E+00  0.000E+00  0.00E+00  0.00E+00  0.00E+00  1.06E+03  2.23E-01  1.20E+01  6.00E-01  1.07E+00
   1    7    6     2     4    0.000E+00   0.000E+00  0.000E+00  0.00E+00  0.00E+00  0.00E+00  1.06E+03  0.00E+00  1.20E+01  6.00E-01  1.00E+00
   1    8    6     2     5    0.000E+00   0.000E+00  0.000E+00  0.00E+00  0.00E+00  0.00E+00  1.05E+03  0.00E+00  1.20E+01  6.00E-01  1.00E+00
   1    3    5     3     1    1.000E+01   2.825E+00  7.175E+00  0.00E+00  0.00E+00  0.00E+00  1.08E+03  1.91E+00  9.64E+00  7.23E-01  1.95E+00
   1    3    6     3     2    7.175E+00   2.057E+00  5.117E+00  0.00E+00  0.00E+00  0.00E+00  1.07E+03  1.73E+00  8.91E+00  6.68E-01  1.54E+00
   1    3    7     3     3    5.117E+00   6.674E-01  4.450E+00  0.00E+00  0.00E+00  0.00E+00  1.07E+03  1.55E+00  8.22E+00  5.55E-01  6.02E-01
   1    4    8     3     4    4.450E+00   9.965E-01  3.453E+00  0.00E+00  0.00E+00  0.00E+00  1.07E+03  1.36E+00  7.45E+00  6.71E-01  7.43E-01
   1    5    8     3     5    3.453E+00   1.579E+00  1.874E+00  0.00E+00  0.00E+00  0.00E+00  1.06E+03  1.16E+00  6.65E+00  4.99E-01  1.58E+00
   1    6    8     3     6    1.874E+00   5.598E-01  1.315E+00  0.00E+00  0.00E+00  0.00E+00  1.06E+03  1.04E+00  6.15E+00  1.84E-01  1.52E+00
   1    5   10     4     1    1.000E+01   9.096E-01  9.090E+00  0.00E+00  0.00E+00  0.00E+00  1.08E+03  6.39E-01  1.00E+01  2.50E-01  1.21E+00
   1    5    9     4     2    9.090E+00   1.802E+00  7.289E+00  0.00E+00  0.00E+00  0.00E+00  1.07E+03  6.03E-01  1.00E+01  5.00E-01  1.20E+00
   1    6    8     4     3    7.289E+00   1.235E+00  6.054E+00  0.00E+00  0.00E+00  0.00E+00  1.06E+03  5.28E-01  1.00E+01  3.50E-01  1.18E+00
   1    6    8     5     1    7.369E+00   1.242E+00  6.126E+00  0.00E+00  0.00E+00  0.00E+00  1.06E+03  5.85E-01  1.19E+01  4.78E-01  8.67E-01
   1    7    7     5     2    6.126E+00   1.810E+00  4.316E+00  0.00E+00  0.00E+00  0.00E+00  1.05E+03  5.35E-01  1.02E+01  5.12E-01  1.18E+00
   1    8    7     5     3    4.316E+00   1.031E+00  3.285E+00  0.00E+00  0.00E+00  0.00E+00  1.05E+03  4.79E-01  8.47E+00  2.96E-01  1.16E+00
   1    8    6     5     4    3.285E+00   6.279E-01  2.657E+00  0.00E+00  0.00E+00  0.00E+00  1.05E+03  4.39E-01  7.30E+00  1.83E-01  1.15E+00
   1    9    6     6     1    2.657E+00   1.991E+00  6.662E-01  0.00E+00  0.00E+00  0.00E+00  1.04E+03  3.18E-01  1.20E+01  6.00E-01  1.11E+00
   1   10    7     6     2    6.662E-01   6.662E-01  0.000E+00  0.00E+00  0.00E+00  0.00E+00  1.04E+03  1.39E-01  1.20E+01  6.00E-01  1.05E+00
   1   11    7     6     3    0.000E+00   0.000E+00  0.000E+00  0.00E+00  0.00E+00  0.00E+00  1.03E+03  0.00E+00  1.20E+01  6.00E-01  1.00E+00
   1   12    7     6     4    0.000E+00   0.000E+00  0.000E+00  0.00E+00  0.00E+00  0.00E+00  1.03E+03  0.00E+00  1.20E+01  6.00E-01  1.00E+00
   1   13    7     6     5    0.000E+00  -6.785E-01  6.785E-01  0.00E+00  0.00E+00  0.00E+00  1.03E+03  9.24E-02  1.20E+01  2.40E-01 -9.42E-01
   1   14    9     7     1    1.500E+02   2.965E+00  1.470E+02  0.00E+00  0.00E+00  0.00E+00  1.04E+03  2.28E+00  5.53E+01  5.59E+00  1.77E-01
   1   13    8     7     2    1.470E+02   4.285E+00  1.427E+02  0.00E+00  0.00E+00  0.00E+00  1.03E+03  2.26E+00  5.52E+01  6.14E+00  2.33E-01
   1   13    7     7     3    1.427E+02   4.625E+00  1.381E+02  0.00E+00  0.00E+00  0.00E+00  1.03E+03  2.24E+00  5.51E+01  5.57E+00  2.77E-01
   1   13    6     8     1    1.388E+02   3.363E+00  1.354E+02  0.00E+00  0.00E+00  0.00E+00  1.02E+03  2.72E+00  3.95E+01  4.02E+00  2.79E-01
   1   13    5     8     2    1.354E+02   1.188E+00  1.343E+02  0.00E+00  0.00E+00  0.00E+00  1.02E+03  2.71E+00  3.92E+01  4.00E+00  9.90E-02
   1   13    4     8     3    1.343E+02  -7.354E-01  1.350E+02  0.00E+00  0.00E+00  0.00E+00  1.01E+03  2.70E+00  3.92E+01  4.00E+00 -6.13E-02
   1   13    3     8     4    1.350E+02  -1.908E+00  1.369E+02  0.00E+00  0.00E+00  0.00E+00  1.01E+03  2.71E+00  3.94E+01  4.01E+00 -1.59E-01
   1   13    2     8     5    1.369E+02  -9.428E-01  1.378E+02  0.00E+00  0.00E+00  0.00E+00  1.00E+03  2.73E+00  3.95E+01  4.03E+00 -7.80E-02
   1   13    1     8     6    1.378E+02   3.990E-01  1.374E+02  0.00E+00  0.00E+00  0.00E+00  9.95E+02  2.73E+00  3.95E+01  2.42E+00  5.50E-02



1
              HEAD IN LAYER   1 AT END OF TIME STEP  13 IN STRESS PERIOD    1
  ---------------------------------------------------------------------------

           1       2       3       4       5       6       7       8       9      10
 ...................................................................................
   1  1092.84 1089.35 6999.00 6999.00 6999.00 6999.00 6999.00 6999.00 6999.00 6999.00
   2  1089.83 1086.48 1080.36 6999.00 6999.00 1071.57 1070.99 1070.72 6999.00 6999.00
   3  6999.00 1078.35 1075.13 1069.87 1070.20 1069.56 1068.67 1068.24 6999.00 6999.00
   4  1068.26 1068.68 1065.87 1060.32 1058.91 1058.38 1060.87 1065.33 1065.61 6999.00
   5  1063.72 1060.37 1054.92 1049.67 1050.06 1053.17 1055.34 1059.67 1064.62 1067.68
   6  1058.19 1052.88 1044.27 1035.69 1037.86 1045.82 1050.92 1055.99 1060.65 1065.28
   7  1054.20 1046.30 1035.81 1025.90 1029.02 1038.49 1045.73 1051.09 1055.14 6999.00
   8  6999.00 1038.94 1028.86 1018.47 1022.23 1032.15 1038.58 1045.61 1049.40 6999.00
   9  6999.00 1032.26 1023.35 1013.83 1017.87 1027.50 1032.61 1038.88 1043.16 6999.00
  10  6999.00 1025.92 1019.58 1012.66 1016.28 1024.31 1029.02 1034.18 1038.50 1041.46
  11  6999.00 1018.59 1016.65 1016.25 1018.99 1023.41 1026.72 1031.12 1035.07 6999.00
  12  1000.95 1008.13 1011.99 1015.27 1018.87 1022.78 1025.80 1029.44 1034.04 6999.00
  13   994.44  999.83 1006.32 1012.26 1018.03 1023.76 1028.83 1034.07 1036.10 6999.00
  14  6999.00 1003.97 1008.80 1013.44 1018.61 1023.82 1029.35 1035.07 1039.33 6999.00
  15  6999.00 6999.00 1011.89 1015.05 1019.07 1022.35 6999.00 6999.00 6999.00 6999.00
1
  VOLUMETRIC BUDGET FOR ENTIRE MODEL AT END OF TIME STEP 13 IN STRESS PERIOD   1
  ------------------------------------------------------------------------------

     CUMULATIVE VOLUMES      L**3       RATES FOR THIS TIME STEP      L**3/T
     ------------------                 ------------------------

           IN:                                      IN:
           ---                                      ---
             STORAGE =  2692748800.0000               STORAGE =          71.3942
       CONSTANT HEAD =           0.0000         CONSTANT HEAD =           0.0000
               WELLS =           0.0000                 WELLS =           0.0000
                  ET =           0.0000                    ET =           0.0000
     HEAD DEP BOUNDS =     7158215.5000       HEAD DEP BOUNDS =           0.2153
            RECHARGE =    59632788.0000              RECHARGE =           1.7937
      STREAM LEAKAGE =  1619003520.0000        STREAM LEAKAGE =          51.8258

            TOTAL IN =  4378543100.0000              TOTAL IN =         125.2291

          OUT:                                     OUT:
          ----                                     ----
             STORAGE =     1790008.6200               STORAGE =           0.0000
       CONSTANT HEAD =           0.0000         CONSTANT HEAD =           0.0000
               WELLS =  3324476160.0000                 WELLS =         100.0000
                  ET =   826431104.0000                    ET =          20.7220
     HEAD DEP BOUNDS =     8186123.5000       HEAD DEP BOUNDS =           0.2446
            RECHARGE =           0.0000              RECHARGE =           0.0000
      STREAM LEAKAGE =   218049776.0000        STREAM LEAKAGE =           4.2650

           TOTAL OUT =  4378933250.0000             TOTAL OUT =         125.2317

            IN - OUT =     -389848.6250              IN - OUT =      -2.6308E-03

 PERCENT DISCREPANCY =          -0.01     PERCENT DISCREPANCY =           0.00






          TIME SUMMARY AT END OF TIME STEP  13 IN STRESS PERIOD    1
                    SECONDS     MINUTES      HOURS       DAYS        YEARS
                    -----------------------------------------------------------
   TIME STEP LENGTH 4.25468E+06  70911.      1181.9      49.244     0.13482    
 STRESS PERIOD TIME 3.32448E+07 5.54079E+05  9234.7      384.78      1.0535    
         TOTAL TIME 3.32448E+07 5.54079E+05  9234.7      384.78      1.0535    
1
 
 SOLVING FOR HEAD 
     7 ITERATIONS FOR TIME STEP  14 IN STRESS PERIOD    1

 MAXIMUM HEAD CHANGE FOR EACH ITERATION:

    HEAD CHANGE   HEAD CHANGE   HEAD CHANGE   HEAD CHANGE   HEAD CHANGE
  LAYER,ROW,COL LAYER,ROW,COL LAYER,ROW,COL LAYER,ROW,COL LAYER,ROW,COL
 ----------------------------------------------------------------------
     -1.378       -0.4691       -0.1439       -0.3447E-01   -0.9479E-02
  (  1,  8,  3) (  1,  8,  5) (  1,  8,  5) (  1,  8,  5) (  1, 10,  7)
    -0.2232E-02   -0.6640E-03
  (  1, 10,  7) (  1, 10,  7)


 NO OUTPUT CONTROL FOR STRESS PERIOD    1   TIME STEP  14
 
 SOLVING FOR HEAD 
     7 ITERATIONS FOR TIME STEP  15 IN STRESS PERIOD    1

 MAXIMUM HEAD CHANGE FOR EACH ITERATION:

    HEAD CHANGE   HEAD CHANGE   HEAD CHANGE   HEAD CHANGE   HEAD CHANGE
  LAYER,ROW,COL LAYER,ROW,COL LAYER,ROW,COL LAYER,ROW,COL LAYER,ROW,COL
 ----------------------------------------------------------------------
     -1.389       -0.4942       -0.1560       -0.3831E-01   -0.8465E-02
  (  1,  8,  3) (  1,  8,  5) (  1,  8,  5) (  1,  8,  5) (  1,  8,  5)
    -0.1470E-02   -0.6198E-03
  (  1, 10,  7) (  1,  7,  5)


 OUTPUT CONTROL FOR STRESS PERIOD    1   TIME STEP  15
    PRINT BUDGET
    PRINT HEAD FOR ALL LAYERS
    SAVE BUDGET

            WELLS   PERIOD    1   STEP  15
 WELL      1   LAYER   1   ROW     6   COL     4   RATE    -10.0000    
 WELL      2   LAYER   1   ROW     6   COL     5   RATE    -10.0000    
 WELL      3   LAYER   1   ROW     7   COL     4   RATE    -10.0000    
 WELL      4   LAYER   1   ROW     7   COL     5   RATE    -10.0000    
 WELL      5   LAYER   1   ROW     8   COL     4   RATE    -10.0000    
 WELL      6   LAYER   1   ROW     8   COL     5   RATE    -10.0000    
 WELL      7   LAYER   1   ROW     9   COL     4   RATE    -10.0000    
 WELL      8   LAYER   1   ROW     9   COL     5   RATE    -10.0000    
 WELL      9   LAYER   1   ROW    10   COL     4   RATE    -10.0000    
 WELL     10   LAYER   1   ROW    10   COL     5   RATE    -10.0000    
 UBUDSV SAVING "              ET" ON UNIT 59 AT TIME STEP 15, STRESS PERIOD    1

  HEAD DEP BOUNDS   PERIOD    1   STEP  15
 BOUNDARY      1   LAYER   1   ROW    13   COL     1   RATE   -0.243603    
 BOUNDARY      2   LAYER   1   ROW    14   COL     9   RATE    0.215380    



   STREAM LEAKAGE   PERIOD    1   STEP  15

 LAYER ROW COL. STREAM  RCH.  FLOW INTO    FLOW TO  FLOW OUT OF  OVRLND.   DIRECT    STREAM    STREAM    STREAM    STREAM  STREAMBED  STREAMBED
                SEG.NO.  NO.  STRM. RCH.   AQUIFER   STRM. RCH.  RUNOFF    PRECIP      ET       HEAD      DEPTH     WIDTH  CONDCTNC.   GRADIENT

   1    1    1     1     1    2.500E+01   8.164E-01  2.418E+01  0.00E+00  0.00E+00  0.00E+00  1.09E+03  1.17E+00  1.30E+01  5.84E-01  4.66E-01
   1    2    2     1     2    2.418E+01   2.618E+00  2.157E+01  0.00E+00  0.00E+00  0.00E+00  1.09E+03  1.15E+00  1.26E+01  8.84E-01  9.87E-01
   1    3    3     1     3    2.157E+01   2.958E+00  1.861E+01  0.00E+00  0.00E+00  0.00E+00  1.08E+03  1.10E+00  1.20E+01  7.21E-01  1.37E+00
   1    3    4     1     4    1.861E+01   2.517E+00  1.609E+01  0.00E+00  0.00E+00  0.00E+00  1.08E+03  1.06E+00  1.12E+01  6.21E-01  1.35E+00
   1    4    5     2     1    6.091E+00   2.744E+00  3.348E+00  0.00E+00  0.00E+00  0.00E+00  1.07E+03  5.18E-01  1.20E+01  7.80E-01  1.17E+00
   1    5    6     2     2    3.348E+00   2.017E+00  1.331E+00  0.00E+00  0.00E+00  0.00E+00  1.07E+03  3.61E-01  1.20E+01  6.00E-01  1.12E+00
   1    6    6     2     3    1.331E+00   1.331E+00  0.000E+00  0.00E+00  0.00E+00  0.00E+00  1.06E+03  2.08E-01  1.20E+01  6.00E-01  1.07E+00
   1    7    6     2     4    0.000E+00   0.000E+00  0.000E+00  0.00E+00  0.00E+00  0.00E+00  1.06E+03  0.00E+00  1.20E+01  6.00E-01  1.00E+00
   1    8    6     2     5    0.000E+00   0.000E+00  0.000E+00  0.00E+00  0.00E+00  0.00E+00  1.05E+03  0.00E+00  1.20E+01  6.00E-01  1.00E+00
   1    3    5     3     1    1.000E+01   2.825E+00  7.175E+00  0.00E+00  0.00E+00  0.00E+00  1.08E+03  1.91E+00  9.64E+00  7.23E-01  1.95E+00
   1    3    6     3     2    7.175E+00   2.417E+00  4.758E+00  0.00E+00  0.00E+00  0.00E+00  1.07E+03  1.73E+00  8.91E+00  6.68E-01  1.81E+00
   1    3    7     3     3    4.758E+00   8.175E-01  3.940E+00  0.00E+00  0.00E+00  0.00E+00  1.07E+03  1.55E+00  8.22E+00  5.55E-01  7.37E-01
   1    4    8     3     4    3.940E+00   1.237E+00  2.703E+00  0.00E+00  0.00E+00  0.00E+00  1.07E+03  1.36E+00  7.45E+00  6.71E-01  9.22E-01
   1    5    8     3     5    2.703E+00   1.579E+00  1.124E+00  0.00E+00  0.00E+00  0.00E+00  1.06E+03  1.16E+00  6.65E+00  4.99E-01  1.58E+00
   1    6    8     3     6    1.124E+00   5.598E-01  5.646E-01  0.00E+00  0.00E+00  0.00E+00  1.06E+03  1.04E+00  6.15E+00  1.84E-01  1.52E+00
   1    5   10     4     1    1.000E+01   9.096E-01  9.090E+00  0.00E+00  0.00E+00  0.00E+00  1.08E+03  6.39E-01  1.00E+01  2.50E-01  1.21E+00
   1    5    9     4     2    9.090E+00   1.802E+00  7.289E+00  0.00E+00  0.00E+00  0.00E+00  1.07E+03  6.03E-01  1.00E+01  5.00E-01  1.20E+00
   1    6    8     4     3    7.289E+00   1.235E+00  6.054E+00  0.00E+00  0.00E+00  0.00E+00  1.06E+03  5.28E-01  1.00E+01  3.50E-01  1.18E+00
   1    6    8     5     1    6.619E+00   1.558E+00  5.060E+00  0.00E+00  0.00E+00  0.00E+00  1.06E+03  5.56E-01  1.10E+01  4.38E-01  1.19E+00
   1    7    7     5     2    5.060E+00   1.587E+00  3.473E+00  0.00E+00  0.00E+00  0.00E+00  1.05E+03  4.98E-01  9.08E+00  4.54E-01  1.17E+00
   1    8    7     5     3    3.473E+00   8.901E-01  2.583E+00  0.00E+00  0.00E+00  0.00E+00  1.05E+03  4.42E-01  7.39E+00  2.59E-01  1.15E+00
   1    8    6     5     4    2.583E+00   5.350E-01  2.048E+00  0.00E+00  0.00E+00  0.00E+00  1.05E+03  4.02E-01  6.29E+00  1.57E-01  1.13E+00
   1    9    6     6     1    2.048E+00   1.963E+00  8.434E-02  0.00E+00  0.00E+00  0.00E+00  1.04E+03  2.72E-01  1.20E+01  6.00E-01  1.09E+00
   1   10    7     6     2    8.434E-02   8.434E-02  0.000E+00  0.00E+00  0.00E+00  0.00E+00  1.04E+03  4.04E-02  1.20E+01  6.00E-01  1.01E+00
   1   11    7     6     3    0.000E+00   0.000E+00  0.000E+00  0.00E+00  0.00E+00  0.00E+00  1.03E+03  0.00E+00  1.20E+01  6.00E-01  1.00E+00
   1   12    7     6     4    0.000E+00   0.000E+00  0.000E+00  0.00E+00  0.00E+00  0.00E+00  1.03E+03  0.00E+00  1.20E+01  6.00E-01  1.00E+00
   1   13    7     6     5    0.000E+00  -6.593E-01  6.593E-01  0.00E+00  0.00E+00  0.00E+00  1.03E+03  9.09E-02  1.20E+01  2.40E-01 -9.16E-01
   1   14    9     7     1    1.500E+02   2.975E+00  1.470E+02  0.00E+00  0.00E+00  0.00E+00  1.04E+03  2.28E+00  5.53E+01  5.59E+00  1.77E-01
   1   13    8     7     2    1.470E+02   4.380E+00  1.426E+02  0.00E+00  0.00E+00  0.00E+00  1.03E+03  2.26E+00  5.52E+01  6.14E+00  2.38E-01
   1   13    7     7     3    1.426E+02   5.071E+00  1.376E+02  0.00E+00  0.00E+00  0.00E+00  1.03E+03  2.24E+00  5.51E+01  5.57E+00  3.04E-01
   1   13    6     8     1    1.382E+02   3.915E+00  1.343E+02  0.00E+00  0.00E+00  0.00E+00  1.02E+03  2.72E+00  3.94E+01  4.02E+00  3.25E-01
   1   13    5     8     2    1.343E+02   1.840E+00  1.325E+02  0.00E+00  0.00E+00  0.00E+00  1.02E+03  2.70E+00  3.91E+01  3.98E+00  1.54E-01
   1   13    4     8     3    1.325E+02  -1.375E-01  1.326E+02  0.00E+00  0.00E+00  0.00E+00  1.01E+03  2.69E+00  3.90E+01  3.97E+00 -1.15E-02
   1   13    3     8     4    1.326E+02  -1.519E+00  1.341E+02  0.00E+00  0.00E+00  0.00E+00  1.01E+03  2.70E+00  3.91E+01  3.98E+00 -1.27E-01
   1   13    2     8     5    1.341E+02  -8.520E-01  1.350E+02  0.00E+00  0.00E+00  0.00E+00  1.00E+03  2.70E+00  3.92E+01  4.00E+00 -7.11E-02
   1   13    1     8     6    1.350E+02   4.092E-01  1.346E+02  0.00E+00  0.00E+00  0.00E+00  9.95E+02  2.71E+00  3.92E+01  2.40E+00  5.69E-02



1
              HEAD IN LAYER   1 AT END OF TIME STEP  15 IN STRESS PERIOD    1
  ---------------------------------------------------------------------------

           1       2       3       4       5       6       7       8       9      10
 ...................................................................................
   1  1092.82 1089.26 6999.00 6999.00 6999.00 6999.00 6999.00 6999.00 6999.00 6999.00
   2  1089.75 1086.24 1079.59 6999.00 6999.00 1071.27 1070.79 1070.58 6999.00 6999.00
   3  6999.00 1077.55 1073.82 1068.21 1068.75 1069.02 1068.40 1068.04 6999.00 6999.00
   4  1067.61 1067.49 1064.09 1058.18 1056.74 1056.39 1059.48 1064.97 1065.21 6999.00
   5  1062.81 1058.64 1052.50 1047.03 1047.48 1050.82 1053.36 1058.25 1063.75 1067.19
   6  1056.99 1050.62 1041.24 1032.54 1034.83 1043.06 1048.63 1054.33 1059.69 1064.93
   7  1052.80 1043.59 1032.31 1022.37 1025.65 1035.41 1043.00 1048.97 1054.07 6999.00
   8  6999.00 1035.77 1025.08 1014.77 1018.72 1028.87 1035.53 1043.42 1048.49 6999.00
   9  6999.00 1029.22 1019.76 1010.32 1014.54 1024.36 1029.65 1036.78 1042.36 6999.00
  10  6999.00 1023.49 1016.65 1009.73 1013.45 1021.60 1026.32 1032.34 1037.79 1041.27
  11  6999.00 1017.07 1014.80 1014.18 1016.96 1021.49 1025.00 1029.88 1034.52 6999.00
  12  1000.77 1007.54 1011.15 1014.17 1017.80 1021.78 1024.93 1029.01 1033.82 6999.00
  13   994.41  999.79 1006.20 1012.10 1017.86 1023.62 1028.75 1034.05 1036.08 6999.00
  14  6999.00 1003.93 1008.71 1013.32 1018.48 1023.71 1029.29 1035.06 1039.33 6999.00
  15  6999.00 6999.00 1011.86 1015.02 1019.03 1022.31 6999.00 6999.00 6999.00 6999.00
1
  VOLUMETRIC BUDGET FOR ENTIRE MODEL AT END OF TIME STEP 15 IN STRESS PERIOD   1
  ------------------------------------------------------------------------------

     CUMULATIVE VOLUMES      L**3       RATES FOR THIS TIME STEP      L**3/T
     ------------------                 ------------------------

           IN:                                      IN:
           ---                                      ---
             STORAGE =  3365800960.0000               STORAGE =          67.5586
       CONSTANT HEAD =           0.0000         CONSTANT HEAD =           0.0000
               WELLS =           0.0000                 WELLS =           0.0000
                  ET =           0.0000                    ET =           0.0000
     HEAD DEP BOUNDS =     9274899.0000       HEAD DEP BOUNDS =           0.2154
            RECHARGE =    77262328.0000              RECHARGE =           1.7937
      STREAM LEAKAGE =  2141502340.0000        STREAM LEAKAGE =          53.5898

            TOTAL IN =  5593840640.0000              TOTAL IN =         123.1575

          OUT:                                     OUT:
          ----                                     ----
             STORAGE =     1790008.6200               STORAGE =           0.0000
       CONSTANT HEAD =           0.0000         CONSTANT HEAD =           0.0000
               WELLS =  4307307520.0000                 WELLS =         100.0000
                  ET =  1022799740.0000                    ET =          19.7529
     HEAD DEP BOUNDS =    10582808.0000       HEAD DEP BOUNDS =           0.2436
            RECHARGE =           0.0000              RECHARGE =           0.0000
      STREAM LEAKAGE =   251791104.0000        STREAM LEAKAGE =           3.1674

           TOTAL OUT =  5594271230.0000             TOTAL OUT =         123.1640

            IN - OUT =     -430661.6250              IN - OUT =      -6.4563E-03

 PERCENT DISCREPANCY =          -0.01     PERCENT DISCREPANCY =          -0.01






          TIME SUMMARY AT END OF TIME STEP  15 IN STRESS PERIOD    1
                    SECONDS     MINUTES      HOURS       DAYS        YEARS
                    -----------------------------------------------------------
   TIME STEP LENGTH 5.14816E+06  85803.      1430.0      59.585     0.16314    
 STRESS PERIOD TIME 4.30731E+07 7.17885E+05  11965.      498.53      1.3649    
         TOTAL TIME 4.30731E+07 7.17885E+05  11965.      498.53      1.3649    
1
 
 SOLVING FOR HEAD 
     7 ITERATIONS FOR TIME STEP  16 IN STRESS PERIOD    1

 MAXIMUM HEAD CHANGE FOR EACH ITERATION:

    HEAD CHANGE   HEAD CHANGE   HEAD CHANGE   HEAD CHANGE   HEAD CHANGE
  LAYER,ROW,COL LAYER,ROW,COL LAYER,ROW,COL LAYER,ROW,COL LAYER,ROW,COL
 ----------------------------------------------------------------------
     -1.401       -0.5203       -0.1714       -0.4307E-01   -0.9672E-02
  (  1,  8,  3) (  1,  8,  5) (  1,  8,  5) (  1,  8,  5) (  1,  8,  5)
    -0.1619E-02   -0.7325E-03
  (  1,  9,  6) (  1,  8,  5)


 NO OUTPUT CONTROL FOR STRESS PERIOD    1   TIME STEP  16
 
 SOLVING FOR HEAD 
     7 ITERATIONS FOR TIME STEP  17 IN STRESS PERIOD    1

 MAXIMUM HEAD CHANGE FOR EACH ITERATION:

    HEAD CHANGE   HEAD CHANGE   HEAD CHANGE   HEAD CHANGE   HEAD CHANGE
  LAYER,ROW,COL LAYER,ROW,COL LAYER,ROW,COL LAYER,ROW,COL LAYER,ROW,COL
 ----------------------------------------------------------------------
     -1.461       -0.5495       -0.1901       -0.4936E-01   -0.1078E-01
  (  1,  8,  2) (  1,  8,  5) (  1,  7,  5) (  1,  7,  5) (  1,  7,  5)
    -0.2351E-02   -0.8694E-03
  (  1,  6,  8) (  1,  7,  5)


 NO OUTPUT CONTROL FOR STRESS PERIOD    1   TIME STEP  17
 
 SOLVING FOR HEAD 
     8 ITERATIONS FOR TIME STEP  18 IN STRESS PERIOD    1

 MAXIMUM HEAD CHANGE FOR EACH ITERATION:

    HEAD CHANGE   HEAD CHANGE   HEAD CHANGE   HEAD CHANGE   HEAD CHANGE
  LAYER,ROW,COL LAYER,ROW,COL LAYER,ROW,COL LAYER,ROW,COL LAYER,ROW,COL
 ----------------------------------------------------------------------
     -1.538       -0.5843       -0.2092       -0.5716E-01   -0.1358E-01
  (  1,  8,  2) (  1,  7,  5) (  1,  7,  5) (  1,  7,  5) (  1,  6,  8)
    -0.3474E-02   -0.1077E-02   -0.3853E-03
  (  1,  6,  8) (  1,  6,  6) (  1,  7,  5)


 NO OUTPUT CONTROL FOR STRESS PERIOD    1   TIME STEP  18
 
 SOLVING FOR HEAD 
     8 ITERATIONS FOR TIME STEP  19 IN STRESS PERIOD    1

 MAXIMUM HEAD CHANGE FOR EACH ITERATION:

    HEAD CHANGE   HEAD CHANGE   HEAD CHANGE   HEAD CHANGE   HEAD CHANGE
  LAYER,ROW,COL LAYER,ROW,COL LAYER,ROW,COL LAYER,ROW,COL LAYER,ROW,COL
 ----------------------------------------------------------------------
     -1.606       -0.6228       -0.2330       -0.6581E-01   -0.1531E-01
  (  1,  8,  2) (  1,  7,  5) (  1,  7,  5) (  1,  7,  5) (  1,  5,  8)
    -0.4115E-02   -0.1294E-02   -0.4989E-03
  (  1,  5,  8) (  1,  6,  6) (  1,  6,  6)


 NO OUTPUT CONTROL FOR STRESS PERIOD    1   TIME STEP  19
 
 SOLVING FOR HEAD 
     8 ITERATIONS FOR TIME STEP  20 IN STRESS PERIOD    1

 MAXIMUM HEAD CHANGE FOR EACH ITERATION:

    HEAD CHANGE   HEAD CHANGE   HEAD CHANGE   HEAD CHANGE   HEAD CHANGE
  LAYER,ROW,COL LAYER,ROW,COL LAYER,ROW,COL LAYER,ROW,COL LAYER,ROW,COL
 ----------------------------------------------------------------------
     -1.665       -0.6628       -0.2602       -0.7729E-01   -0.1633E-01
  (  1,  8,  2) (  1,  7,  5) (  1,  6,  5) (  1,  6,  6) (  1,  7,  5)
    -0.3501E-02   -0.1462E-02   -0.6106E-03
  (  1,  5,  8) (  1,  6,  6) (  1,  6,  6)


 OUTPUT CONTROL FOR STRESS PERIOD    1   TIME STEP  20
    PRINT BUDGET
    PRINT HEAD FOR ALL LAYERS
    SAVE BUDGET

            WELLS   PERIOD    1   STEP  20
 WELL      1   LAYER   1   ROW     6   COL     4   RATE    -10.0000    
 WELL      2   LAYER   1   ROW     6   COL     5   RATE    -10.0000    
 WELL      3   LAYER   1   ROW     7   COL     4   RATE    -10.0000    
 WELL      4   LAYER   1   ROW     7   COL     5   RATE    -10.0000    
 WELL      5   LAYER   1   ROW     8   COL     4   RATE    -10.0000    
 WELL      6   LAYER   1   ROW     8   COL     5   RATE    -10.0000    
 WELL      7   LAYER   1   ROW     9   COL     4   RATE    -10.0000    
 WELL      8   LAYER   1   ROW     9   COL     5   RATE    -10.0000    
 WELL      9   LAYER   1   ROW    10   COL     4   RATE    -10.0000    
 WELL     10   LAYER   1   ROW    10   COL     5   RATE    -10.0000    
 UBUDSV SAVING "              ET" ON UNIT 59 AT TIME STEP 20, STRESS PERIOD    1

  HEAD DEP BOUNDS   PERIOD    1   STEP  20
 BOUNDARY      1   LAYER   1   ROW    13   COL     1   RATE   -0.240364    
 BOUNDARY      2   LAYER   1   ROW    14   COL     9   RATE    0.215644    



   STREAM LEAKAGE   PERIOD    1   STEP  20

 LAYER ROW COL. STREAM  RCH.  FLOW INTO    FLOW TO  FLOW OUT OF  OVRLND.   DIRECT    STREAM    STREAM    STREAM    STREAM  STREAMBED  STREAMBED
                SEG.NO.  NO.  STRM. RCH.   AQUIFER   STRM. RCH.  RUNOFF    PRECIP      ET       HEAD      DEPTH     WIDTH  CONDCTNC.   GRADIENT

   1    1    1     1     1    2.500E+01   8.951E-01  2.410E+01  0.00E+00  0.00E+00  0.00E+00  1.09E+03  1.17E+00  1.30E+01  5.84E-01  5.11E-01
   1    2    2     1     2    2.410E+01   3.501E+00  2.060E+01  0.00E+00  0.00E+00  0.00E+00  1.09E+03  1.14E+00  1.25E+01  8.76E-01  1.33E+00
   1    3    3     1     3    2.060E+01   2.880E+00  1.772E+01  0.00E+00  0.00E+00  0.00E+00  1.08E+03  1.09E+00  1.17E+01  7.05E-01  1.36E+00
   1    3    4     1     4    1.772E+01   2.445E+00  1.528E+01  0.00E+00  0.00E+00  0.00E+00  1.08E+03  1.04E+00  1.09E+01  6.05E-01  1.35E+00
   1    4    5     2     1    5.278E+00   2.710E+00  2.567E+00  0.00E+00  0.00E+00  0.00E+00  1.07E+03  4.75E-01  1.20E+01  7.80E-01  1.16E+00
   1    5    6     2     2    2.567E+00   1.985E+00  5.825E-01  0.00E+00  0.00E+00  0.00E+00  1.07E+03  3.08E-01  1.20E+01  6.00E-01  1.10E+00
   1    6    6     2     3    5.825E-01   5.825E-01  0.000E+00  0.00E+00  0.00E+00  0.00E+00  1.06E+03  1.27E-01  1.20E+01  6.00E-01  1.04E+00
   1    7    6     2     4    0.000E+00   0.000E+00  0.000E+00  0.00E+00  0.00E+00  0.00E+00  1.06E+03  0.00E+00  1.20E+01  6.00E-01  1.00E+00
   1    8    6     2     5    0.000E+00   0.000E+00  0.000E+00  0.00E+00  0.00E+00  0.00E+00  1.05E+03  0.00E+00  1.20E+01  6.00E-01  1.00E+00
   1    3    5     3     1    1.000E+01   2.825E+00  7.175E+00  0.00E+00  0.00E+00  0.00E+00  1.08E+03  1.91E+00  9.64E+00  7.23E-01  1.95E+00
   1    3    6     3     2    7.175E+00   2.491E+00  4.684E+00  0.00E+00  0.00E+00  0.00E+00  1.07E+03  1.73E+00  8.91E+00  6.68E-01  1.86E+00
   1    3    7     3     3    4.684E+00   1.540E+00  3.144E+00  0.00E+00  0.00E+00  0.00E+00  1.07E+03  1.55E+00  8.22E+00  5.55E-01  1.39E+00
   1    4    8     3     4    3.144E+00   2.257E+00  8.877E-01  0.00E+00  0.00E+00  0.00E+00  1.07E+03  1.36E+00  7.45E+00  6.71E-01  1.68E+00
   1    5    8     3     5    8.877E-01   8.877E-01  0.000E+00  0.00E+00  0.00E+00  0.00E+00  1.06E+03  1.16E+00  6.65E+00  4.99E-01  1.58E+00
   1    6    8     3     6    0.000E+00   0.000E+00  0.000E+00  0.00E+00  0.00E+00  0.00E+00  1.06E+03  0.00E+00  6.15E+00  1.84E-01  1.00E+00
   1    5   10     4     1    1.000E+01   9.096E-01  9.090E+00  0.00E+00  0.00E+00  0.00E+00  1.08E+03  6.39E-01  1.00E+01  2.50E-01  1.21E+00
   1    5    9     4     2    9.090E+00   1.802E+00  7.289E+00  0.00E+00  0.00E+00  0.00E+00  1.07E+03  6.03E-01  1.00E+01  5.00E-01  1.20E+00
   1    6    8     4     3    7.289E+00   1.235E+00  6.054E+00  0.00E+00  0.00E+00  0.00E+00  1.06E+03  5.28E-01  1.00E+01  3.50E-01  1.18E+00
   1    6    8     5     1    6.054E+00   1.466E+00  4.588E+00  0.00E+00  0.00E+00  0.00E+00  1.06E+03  5.39E-01  1.04E+01  4.14E-01  1.18E+00
   1    7    7     5     2    4.588E+00   1.484E+00  3.104E+00  0.00E+00  0.00E+00  0.00E+00  1.05E+03  4.81E-01  8.53E+00  4.26E-01  1.16E+00
   1    8    7     5     3    3.104E+00   8.249E-01  2.279E+00  0.00E+00  0.00E+00  0.00E+00  1.05E+03  4.24E-01  6.88E+00  2.41E-01  1.14E+00
   1    8    6     5     4    2.279E+00   4.921E-01  1.787E+00  0.00E+00  0.00E+00  0.00E+00  1.05E+03  3.85E-01  5.82E+00  1.45E-01  1.13E+00
   1    9    6     6     1    1.787E+00   1.787E+00  0.000E+00  0.00E+00  0.00E+00  0.00E+00  1.04E+03  2.51E-01  1.20E+01  6.00E-01  1.08E+00
   1   10    7     6     2    0.000E+00   0.000E+00  0.000E+00  0.00E+00  0.00E+00  0.00E+00  1.04E+03  0.00E+00  1.20E+01  6.00E-01  1.00E+00
   1   11    7     6     3    0.000E+00   0.000E+00  0.000E+00  0.00E+00  0.00E+00  0.00E+00  1.03E+03  0.00E+00  1.20E+01  6.00E-01  1.00E+00
   1   12    7     6     4    0.000E+00   0.000E+00  0.000E+00  0.00E+00  0.00E+00  0.00E+00  1.03E+03  0.00E+00  1.20E+01  6.00E-01  1.00E+00
   1   13    7     6     5    0.000E+00  -6.046E-01  6.046E-01  0.00E+00  0.00E+00  0.00E+00  1.03E+03  8.63E-02  1.20E+01  2.40E-01 -8.40E-01
   1   14    9     7     1    1.500E+02   3.013E+00  1.470E+02  0.00E+00  0.00E+00  0.00E+00  1.04E+03  2.28E+00  5.53E+01  5.59E+00  1.80E-01
   1   13    8     7     2    1.470E+02   4.687E+00  1.423E+02  0.00E+00  0.00E+00  0.00E+00  1.03E+03  2.26E+00  5.52E+01  6.14E+00  2.54E-01
   1   13    7     7     3    1.423E+02   6.332E+00  1.360E+02  0.00E+00  0.00E+00  0.00E+00  1.03E+03  2.23E+00  5.50E+01  5.57E+00  3.79E-01
   1   13    6     8     1    1.366E+02   5.421E+00  1.312E+02  0.00E+00  0.00E+00  0.00E+00  1.02E+03  2.70E+00  3.91E+01  3.99E+00  4.53E-01
   1   13    5     8     2    1.312E+02   3.609E+00  1.275E+02  0.00E+00  0.00E+00  0.00E+00  1.02E+03  2.66E+00  3.86E+01  3.94E+00  3.06E-01
   1   13    4     8     3    1.275E+02   1.445E+00  1.261E+02  0.00E+00  0.00E+00  0.00E+00  1.01E+03  2.64E+00  3.84E+01  3.91E+00  1.23E-01
   1   13    3     8     4    1.261E+02  -4.601E-01  1.266E+02  0.00E+00  0.00E+00  0.00E+00  1.01E+03  2.64E+00  3.83E+01  3.90E+00 -3.93E-02
   1   13    2     8     5    1.266E+02  -5.632E-01  1.271E+02  0.00E+00  0.00E+00  0.00E+00  1.00E+03  2.65E+00  3.84E+01  3.91E+00 -4.80E-02
   1   13    1     8     6    1.271E+02   4.578E-01  1.267E+02  0.00E+00  0.00E+00  0.00E+00  9.95E+02  2.65E+00  3.84E+01  2.35E+00  6.51E-02



1
              HEAD IN LAYER   1 AT END OF TIME STEP  20 IN STRESS PERIOD    1
  ---------------------------------------------------------------------------

           1       2       3       4       5       6       7       8       9      10
 ...................................................................................
   1  1092.69 1088.70 6999.00 6999.00 6999.00 6999.00 6999.00 6999.00 6999.00 6999.00
   2  1089.30 1085.20 1076.39 6999.00 6999.00 1069.31 1069.73 1069.82 6999.00 6999.00
   3  6999.00 1074.19 1068.85 1062.20 1062.78 1064.86 1067.10 1066.95 6999.00 6999.00
   4  1064.01 1062.61 1057.91 1051.11 1049.49 1049.49 1054.40 1063.35 1062.68 6999.00
   5  1058.31 1052.29 1044.87 1038.92 1039.40 1043.07 1046.18 1051.87 1059.08 1063.88
   6  1051.48 1042.95 1032.36 1023.45 1025.87 1034.37 1040.66 1046.92 1054.59 1062.21
   7  1046.54 1034.79 1022.51 1012.64 1016.20 1026.38 1034.53 1041.20 1048.80 6999.00
   8  6999.00 1025.74 1014.78 1004.91 1009.23 1019.77 1026.79 1035.81 1043.79 6999.00
   9  6999.00 1019.52 1010.04 1001.16 1005.73 1015.84 1021.43 1029.71 1038.20 6999.00
  10  6999.00 1015.51 1008.68 1002.10 1006.03 1014.40 1019.32 1026.41 1034.38 1039.83
  11  6999.00 1011.88 1009.72 1008.76 1011.57 1016.27 1020.00 1025.77 1031.89 6999.00
  12   999.95 1005.55 1008.85 1011.25 1014.86 1019.04 1022.44 1027.63 1032.76 6999.00
  13   994.33  999.66 1005.88 1011.65 1017.37 1023.21 1028.51 1034.00 1035.96 6999.00
  14  6999.00 1003.78 1008.41 1012.93 1018.06 1023.36 1029.07 1035.01 1039.33 6999.00
  15  6999.00 6999.00 1011.71 1014.81 1018.81 1022.11 6999.00 6999.00 6999.00 6999.00
1
  VOLUMETRIC BUDGET FOR ENTIRE MODEL AT END OF TIME STEP 20 IN STRESS PERIOD   1
  ------------------------------------------------------------------------------

     CUMULATIVE VOLUMES      L**3       RATES FOR THIS TIME STEP      L**3/T
     ------------------                 ------------------------

           IN:                                      IN:
           ---                                      ---
             STORAGE =  5494535170.0000               STORAGE =          58.1094
       CONSTANT HEAD =           0.0000         CONSTANT HEAD =           0.0000
               WELLS =           0.0000                 WELLS =           0.0000
                  ET =           0.0000                    ET =           0.0000
     HEAD DEP BOUNDS =    16726573.0000       HEAD DEP BOUNDS =           0.2156
            RECHARGE =   139277760.0000              RECHARGE =           1.7937
      STREAM LEAKAGE =  4131270660.0000        STREAM LEAKAGE =          59.9647

            TOTAL IN =  9781810180.0000              TOTAL IN =         120.0835

          OUT:                                     OUT:
          ----                                     ----
             STORAGE =     1790008.6200               STORAGE =           0.0000
       CONSTANT HEAD =           0.0000         CONSTANT HEAD =           0.0000
               WELLS =  7764614140.0000                 WELLS =         100.0000
                  ET =  1670946560.0000                    ET =          18.2143
     HEAD DEP BOUNDS =    18935830.0000       HEAD DEP BOUNDS =           0.2404
            RECHARGE =           0.0000              RECHARGE =           0.0000
      STREAM LEAKAGE =   326040736.0000        STREAM LEAKAGE =           1.6278

           TOTAL OUT =  9782327300.0000             TOTAL OUT =         120.0825

            IN - OUT =     -517121.6250              IN - OUT =       1.0305E-03

 PERCENT DISCREPANCY =          -0.01     PERCENT DISCREPANCY =           0.00






          TIME SUMMARY AT END OF TIME STEP  20 IN STRESS PERIOD    1
                    SECONDS     MINUTES      HOURS       DAYS        YEARS
                    -----------------------------------------------------------
   TIME STEP LENGTH 8.29117E+06 1.38186E+05  2303.1      95.963     0.26273    
 STRESS PERIOD TIME 7.76461E+07 1.29410E+06  21568.      898.68      2.4605    
         TOTAL TIME 7.76461E+07 1.29410E+06  21568.      898.68      2.4605    
1
 
 SOLVING FOR HEAD 
     8 ITERATIONS FOR TIME STEP  21 IN STRESS PERIOD    1

 MAXIMUM HEAD CHANGE FOR EACH ITERATION:

    HEAD CHANGE   HEAD CHANGE   HEAD CHANGE   HEAD CHANGE   HEAD CHANGE
  LAYER,ROW,COL LAYER,ROW,COL LAYER,ROW,COL LAYER,ROW,COL LAYER,ROW,COL
 ----------------------------------------------------------------------
     -1.718       -0.7015       -0.2893       -0.8447E-01   -0.1894E-01
  (  1,  8,  2) (  1,  7,  5) (  1,  6,  5) (  1,  7,  5) (  1,  7,  5)
    -0.3377E-02   -0.1686E-02   -0.6942E-03
  (  1,  5,  8) (  1,  7,  5) (  1,  7,  5)


 NO OUTPUT CONTROL FOR STRESS PERIOD    1   TIME STEP  21
 
 SOLVING FOR HEAD 
     8 ITERATIONS FOR TIME STEP  22 IN STRESS PERIOD    1

 MAXIMUM HEAD CHANGE FOR EACH ITERATION:

    HEAD CHANGE   HEAD CHANGE   HEAD CHANGE   HEAD CHANGE   HEAD CHANGE
  LAYER,ROW,COL LAYER,ROW,COL LAYER,ROW,COL LAYER,ROW,COL LAYER,ROW,COL
 ----------------------------------------------------------------------
     -1.763       -0.7350       -0.3211       -0.9609E-01   -0.2193E-01
  (  1,  8,  2) (  1,  7,  5) (  1,  6,  5) (  1,  7,  5) (  1,  7,  5)
    -0.3325E-02   -0.1983E-02   -0.8426E-03
  (  1,  7,  5) (  1,  7,  5) (  1,  7,  5)


 NO OUTPUT CONTROL FOR STRESS PERIOD    1   TIME STEP  22
 
 SOLVING FOR HEAD 
     9 ITERATIONS FOR TIME STEP  23 IN STRESS PERIOD    1

 MAXIMUM HEAD CHANGE FOR EACH ITERATION:

    HEAD CHANGE   HEAD CHANGE   HEAD CHANGE   HEAD CHANGE   HEAD CHANGE
  LAYER,ROW,COL LAYER,ROW,COL LAYER,ROW,COL LAYER,ROW,COL LAYER,ROW,COL
 ----------------------------------------------------------------------
     -1.801       -0.7712       -0.3575       -0.1086       -0.2547E-01
  (  1,  8,  2) (  1,  6,  5) (  1,  6,  5) (  1,  7,  5) (  1,  7,  5)
    -0.3747E-02   -0.2331E-02   -0.1029E-02   -0.3013E-03
  (  1,  7,  5) (  1,  7,  5) (  1,  7,  5) (  1,  7,  5)


 NO OUTPUT CONTROL FOR STRESS PERIOD    1   TIME STEP  23
 
 SOLVING FOR HEAD 
     9 ITERATIONS FOR TIME STEP  24 IN STRESS PERIOD    1

 MAXIMUM HEAD CHANGE FOR EACH ITERATION:

    HEAD CHANGE   HEAD CHANGE   HEAD CHANGE   HEAD CHANGE   HEAD CHANGE
  LAYER,ROW,COL LAYER,ROW,COL LAYER,ROW,COL LAYER,ROW,COL LAYER,ROW,COL
 ----------------------------------------------------------------------
     -1.832       -0.8139       -0.3974       -0.1240       -0.2954E-01
  (  1,  8,  2) (  1,  6,  5) (  1,  6,  5) (  1,  7,  5) (  1,  7,  5)
    -0.4302E-02   -0.2761E-02   -0.1279E-02   -0.3875E-03
  (  1,  7,  8) (  1,  7,  5) (  1,  7,  5) (  1,  7,  5)


 NO OUTPUT CONTROL FOR STRESS PERIOD    1   TIME STEP  24
 
 SOLVING FOR HEAD 
     9 ITERATIONS FOR TIME STEP  25 IN STRESS PERIOD    1

 MAXIMUM HEAD CHANGE FOR EACH ITERATION:

    HEAD CHANGE   HEAD CHANGE   HEAD CHANGE   HEAD CHANGE   HEAD CHANGE
  LAYER,ROW,COL LAYER,ROW,COL LAYER,ROW,COL LAYER,ROW,COL LAYER,ROW,COL
 ----------------------------------------------------------------------
     -1.922       -0.8576       -0.4411       -0.1416       -0.3433E-01
  (  1,  7,  1) (  1,  6,  5) (  1,  6,  5) (  1,  7,  5) (  1,  7,  5)
    -0.5056E-02   -0.3272E-02   -0.1592E-02   -0.4999E-03
  (  1,  7,  8) (  1,  7,  5) (  1,  7,  5) (  1,  7,  5)


 OUTPUT CONTROL FOR STRESS PERIOD    1   TIME STEP  25
    PRINT BUDGET
    PRINT HEAD FOR ALL LAYERS
    SAVE BUDGET

            WELLS   PERIOD    1   STEP  25
 WELL      1   LAYER   1   ROW     6   COL     4   RATE    -10.0000    
 WELL      2   LAYER   1   ROW     6   COL     5   RATE    -10.0000    
 WELL      3   LAYER   1   ROW     7   COL     4   RATE    -10.0000    
 WELL      4   LAYER   1   ROW     7   COL     5   RATE    -10.0000    
 WELL      5   LAYER   1   ROW     8   COL     4   RATE    -10.0000    
 WELL      6   LAYER   1   ROW     8   COL     5   RATE    -10.0000    
 WELL      7   LAYER   1   ROW     9   COL     4   RATE    -10.0000    
 WELL      8   LAYER   1   ROW     9   COL     5   RATE    -10.0000    
 WELL      9   LAYER   1   ROW    10   COL     4   RATE    -10.0000    
 WELL     10   LAYER   1   ROW    10   COL     5   RATE    -10.0000    
 UBUDSV SAVING "              ET" ON UNIT 59 AT TIME STEP 25, STRESS PERIOD    1

  HEAD DEP BOUNDS   PERIOD    1   STEP  25
 BOUNDARY      1   LAYER   1   ROW    13   COL     1   RATE   -0.236450    
 BOUNDARY      2   LAYER   1   ROW    14   COL     9   RATE    0.216080    



   STREAM LEAKAGE   PERIOD    1   STEP  25

 LAYER ROW COL. STREAM  RCH.  FLOW INTO    FLOW TO  FLOW OUT OF  OVRLND.   DIRECT    STREAM    STREAM    STREAM    STREAM  STREAMBED  STREAMBED
                SEG.NO.  NO.  STRM. RCH.   AQUIFER   STRM. RCH.  RUNOFF    PRECIP      ET       HEAD      DEPTH     WIDTH  CONDCTNC.   GRADIENT

   1    1    1     1     1    2.500E+01   1.200E+00  2.380E+01  0.00E+00  0.00E+00  0.00E+00  1.09E+03  1.17E+00  1.29E+01  5.82E-01  6.87E-01
   1    2    2     1     2    2.380E+01   3.600E+00  2.020E+01  0.00E+00  0.00E+00  0.00E+00  1.09E+03  1.13E+00  1.24E+01  8.71E-01  1.38E+00
   1    3    3     1     3    2.020E+01   2.847E+00  1.735E+01  0.00E+00  0.00E+00  0.00E+00  1.08E+03  1.08E+00  1.16E+01  6.98E-01  1.36E+00
   1    3    4     1     4    1.735E+01   2.415E+00  1.494E+01  0.00E+00  0.00E+00  0.00E+00  1.08E+03  1.03E+00  1.08E+01  5.99E-01  1.34E+00
   1    4    5     2     1    4.938E+00   2.696E+00  2.242E+00  0.00E+00  0.00E+00  0.00E+00  1.07E+03  4.56E-01  1.20E+01  7.80E-01  1.15E+00
   1    5    6     2     2    2.242E+00   1.971E+00  2.713E-01  0.00E+00  0.00E+00  0.00E+00  1.07E+03  2.84E-01  1.20E+01  6.00E-01  1.09E+00
   1    6    6     2     3    2.713E-01   2.713E-01  0.000E+00  0.00E+00  0.00E+00  0.00E+00  1.06E+03  8.01E-02  1.20E+01  6.00E-01  1.03E+00
   1    7    6     2     4    0.000E+00   0.000E+00  0.000E+00  0.00E+00  0.00E+00  0.00E+00  1.06E+03  0.00E+00  1.20E+01  6.00E-01  1.00E+00
   1    8    6     2     5    0.000E+00   0.000E+00  0.000E+00  0.00E+00  0.00E+00  0.00E+00  1.05E+03  0.00E+00  1.20E+01  6.00E-01  1.00E+00
   1    3    5     3     1    1.000E+01   2.825E+00  7.175E+00  0.00E+00  0.00E+00  0.00E+00  1.08E+03  1.91E+00  9.64E+00  7.23E-01  1.95E+00
   1    3    6     3     2    7.175E+00   2.491E+00  4.684E+00  0.00E+00  0.00E+00  0.00E+00  1.07E+03  1.73E+00  8.91E+00  6.68E-01  1.86E+00
   1    3    7     3     3    4.684E+00   1.972E+00  2.712E+00  0.00E+00  0.00E+00  0.00E+00  1.07E+03  1.55E+00  8.22E+00  5.55E-01  1.78E+00
   1    4    8     3     4    2.712E+00   2.257E+00  4.558E-01  0.00E+00  0.00E+00  0.00E+00  1.07E+03  1.36E+00  7.45E+00  6.71E-01  1.68E+00
   1    5    8     3     5    4.558E-01   4.558E-01  0.000E+00  0.00E+00  0.00E+00  0.00E+00  1.06E+03  1.16E+00  6.65E+00  4.99E-01  1.58E+00
   1    6    8     3     6    0.000E+00   0.000E+00  0.000E+00  0.00E+00  0.00E+00  0.00E+00  1.06E+03  0.00E+00  6.15E+00  1.84E-01  1.00E+00
   1    5   10     4     1    1.000E+01   9.096E-01  9.090E+00  0.00E+00  0.00E+00  0.00E+00  1.08E+03  6.39E-01  1.00E+01  2.50E-01  1.21E+00
   1    5    9     4     2    9.090E+00   1.802E+00  7.289E+00  0.00E+00  0.00E+00  0.00E+00  1.07E+03  6.03E-01  1.00E+01  5.00E-01  1.20E+00
   1    6    8     4     3    7.289E+00   1.235E+00  6.054E+00  0.00E+00  0.00E+00  0.00E+00  1.06E+03  5.28E-01  1.00E+01  3.50E-01  1.18E+00
   1    6    8     5     1    6.054E+00   1.466E+00  4.588E+00  0.00E+00  0.00E+00  0.00E+00  1.06E+03  5.39E-01  1.04E+01  4.14E-01  1.18E+00
   1    7    7     5     2    4.588E+00   1.484E+00  3.104E+00  0.00E+00  0.00E+00  0.00E+00  1.05E+03  4.81E-01  8.53E+00  4.26E-01  1.16E+00
   1    8    7     5     3    3.104E+00   8.249E-01  2.279E+00  0.00E+00  0.00E+00  0.00E+00  1.05E+03  4.24E-01  6.88E+00  2.41E-01  1.14E+00
   1    8    6     5     4    2.279E+00   4.921E-01  1.787E+00  0.00E+00  0.00E+00  0.00E+00  1.05E+03  3.85E-01  5.82E+00  1.45E-01  1.13E+00
   1    9    6     6     1    1.787E+00   1.787E+00  0.000E+00  0.00E+00  0.00E+00  0.00E+00  1.04E+03  2.51E-01  1.20E+01  6.00E-01  1.08E+00
   1   10    7     6     2    0.000E+00   0.000E+00  0.000E+00  0.00E+00  0.00E+00  0.00E+00  1.04E+03  0.00E+00  1.20E+01  6.00E-01  1.00E+00
   1   11    7     6     3    0.000E+00   0.000E+00  0.000E+00  0.00E+00  0.00E+00  0.00E+00  1.03E+03  0.00E+00  1.20E+01  6.00E-01  1.00E+00
   1   12    7     6     4    0.000E+00   0.000E+00  0.000E+00  0.00E+00  0.00E+00  0.00E+00  1.03E+03  0.00E+00  1.20E+01  6.00E-01  1.00E+00
   1   13    7     6     5    0.000E+00  -5.459E-01  5.459E-01  0.00E+00  0.00E+00  0.00E+00  1.03E+03  8.11E-02  1.20E+01  2.40E-01 -7.58E-01
   1   14    9     7     1    1.500E+02   3.075E+00  1.469E+02  0.00E+00  0.00E+00  0.00E+00  1.04E+03  2.28E+00  5.53E+01  5.59E+00  1.83E-01
   1   13    8     7     2    1.469E+02   5.055E+00  1.419E+02  0.00E+00  0.00E+00  0.00E+00  1.03E+03  2.26E+00  5.52E+01  6.14E+00  2.74E-01
   1   13    7     7     3    1.419E+02   7.685E+00  1.342E+02  0.00E+00  0.00E+00  0.00E+00  1.03E+03  2.23E+00  5.50E+01  5.56E+00  4.60E-01
   1   13    6     8     1    1.347E+02   7.045E+00  1.277E+02  0.00E+00  0.00E+00  0.00E+00  1.02E+03  2.68E+00  3.88E+01  3.96E+00  5.93E-01
   1   13    5     8     2    1.277E+02   5.473E+00  1.222E+02  0.00E+00  0.00E+00  0.00E+00  1.02E+03  2.63E+00  3.81E+01  3.89E+00  4.69E-01
   1   13    4     8     3    1.222E+02   3.072E+00  1.191E+02  0.00E+00  0.00E+00  0.00E+00  1.01E+03  2.60E+00  3.76E+01  3.84E+00  2.67E-01
   1   13    3     8     4    1.191E+02   6.334E-01  1.185E+02  0.00E+00  0.00E+00  0.00E+00  1.01E+03  2.58E+00  3.74E+01  3.81E+00  5.54E-02
   1   13    2     8     5    1.185E+02  -2.371E-01  1.187E+02  0.00E+00  0.00E+00  0.00E+00  9.99E+02  2.58E+00  3.74E+01  3.81E+00 -2.07E-02
   1   13    1     8     6    1.187E+02   5.282E-01  1.182E+02  0.00E+00  0.00E+00  0.00E+00  9.94E+02  2.58E+00  3.74E+01  2.29E+00  7.70E-02



1
              HEAD IN LAYER   1 AT END OF TIME STEP  25 IN STRESS PERIOD    1
  ---------------------------------------------------------------------------

           1       2       3       4       5       6       7       8       9      10
 ...................................................................................
   1  1092.16 1086.58 6999.00 6999.00 6999.00 6999.00 6999.00 6999.00 6999.00 6999.00
   2  1087.51 1081.15 1070.22 6999.00 6999.00 1064.05 1066.09 1066.88 6999.00 6999.00
   3  6999.00 1067.72 1060.83 1053.14 1053.55 1056.97 1062.13 1062.43 6999.00 6999.00
   4  1056.17 1054.21 1048.64 1041.09 1039.23 1039.38 1045.56 1055.81 1055.28 6999.00
   5  1049.45 1042.38 1034.34 1028.11 1028.55 1032.32 1035.59 1041.49 1049.74 1055.64
   6  1041.48 1031.89 1020.94 1012.01 1014.53 1023.18 1029.75 1036.23 1044.99 1054.63
   7  1035.74 1022.92 1010.64 1001.07 1004.85 1015.31 1023.65 1030.36 1039.10 6999.00
   8  6999.00 1013.41 1003.04  993.77  998.43 1009.28 1016.42 1025.45 1034.81 6999.00
   9  6999.00 1007.93  999.36  991.22  996.11 1006.49 1012.21 1020.59 1030.45 6999.00
  10  6999.00 1006.03 1000.09  994.05  998.13 1006.71 1011.77 1019.15 1028.44 1035.79
  11  6999.00 1005.71 1004.31 1003.11 1005.92 1010.72 1014.63 1020.80 1027.54 6999.00
  12   998.76 1003.22 1006.45 1008.20 1011.72 1016.05 1019.78 1026.00 1031.03 6999.00
  13   994.22  999.52 1005.54 1011.17 1016.85 1022.77 1028.26 1033.94 1035.76 6999.00
  14  6999.00 1003.51 1008.02 1012.45 1017.56 1022.93 1028.80 1034.93 1039.31 6999.00
  15  6999.00 6999.00 1011.36 1014.41 1018.38 1021.70 6999.00 6999.00 6999.00 6999.00
1
  VOLUMETRIC BUDGET FOR ENTIRE MODEL AT END OF TIME STEP 25 IN STRESS PERIOD   1
  ------------------------------------------------------------------------------

     CUMULATIVE VOLUMES      L**3       RATES FOR THIS TIME STEP      L**3/T
     ------------------                 ------------------------

           IN:                                      IN:
           ---                                      ---
             STORAGE =  8385074690.0000               STORAGE =          48.4011
       CONSTANT HEAD =           0.0000         CONSTANT HEAD =           0.0000
               WELLS =           0.0000                 WELLS =           0.0000
                  ET =           0.0000                    ET =           0.0000
     HEAD DEP BOUNDS =    28748552.0000       HEAD DEP BOUNDS =           0.2161
            RECHARGE =   239154240.0000              RECHARGE =           1.7937
      STREAM LEAKAGE =  7731253760.0000        STREAM LEAKAGE =          67.5666

            TOTAL IN = 16384231400.0000              TOTAL IN =         117.9775

          OUT:                                     OUT:
          ----                                     ----
             STORAGE =     1790008.6200               STORAGE =           0.0000
       CONSTANT HEAD =           0.0000         CONSTANT HEAD =           0.0000
               WELLS = 13332639700.0000                 WELLS =         100.0000
                  ET =  2638398460.0000                    ET =          16.9613
     HEAD DEP BOUNDS =    32182394.0000       HEAD DEP BOUNDS =           0.2365
            RECHARGE =           0.0000              RECHARGE =           0.0000
      STREAM LEAKAGE =   379886304.0000        STREAM LEAKAGE =           0.7830

           TOTAL OUT = 16384897000.0000             TOTAL OUT =         117.9808

            IN - OUT =     -665674.6250              IN - OUT =      -3.2780E-03

 PERCENT DISCREPANCY =           0.00     PERCENT DISCREPANCY =           0.00






          TIME SUMMARY AT END OF TIME STEP  25 IN STRESS PERIOD    1
                    SECONDS     MINUTES      HOURS       DAYS        YEARS
                    -----------------------------------------------------------
   TIME STEP LENGTH 1.33530E+07 2.22550E+05  3709.2      154.55     0.42313    
 STRESS PERIOD TIME 1.33326E+08 2.22211E+06  37035.      1543.1      4.2249    
         TOTAL TIME 1.33326E+08 2.22211E+06  37035.      1543.1      4.2249    
1
 
 SOLVING FOR HEAD 
     9 ITERATIONS FOR TIME STEP  26 IN STRESS PERIOD    1

 MAXIMUM HEAD CHANGE FOR EACH ITERATION:

    HEAD CHANGE   HEAD CHANGE   HEAD CHANGE   HEAD CHANGE   HEAD CHANGE
  LAYER,ROW,COL LAYER,ROW,COL LAYER,ROW,COL LAYER,ROW,COL LAYER,ROW,COL
 ----------------------------------------------------------------------
     -2.042       -0.9014       -0.4886       -0.1616       -0.3992E-01
  (  1,  7,  1) (  1,  6,  5) (  1,  6,  5) (  1,  7,  5) (  1,  7,  5)
    -0.5942E-02   -0.3871E-02   -0.1977E-02   -0.6410E-03
  (  1,  7,  8) (  1,  7,  5) (  1,  7,  5) (  1,  7,  5)


 NO OUTPUT CONTROL FOR STRESS PERIOD    1   TIME STEP  26
 
 SOLVING FOR HEAD 
     9 ITERATIONS FOR TIME STEP  27 IN STRESS PERIOD    1

 MAXIMUM HEAD CHANGE FOR EACH ITERATION:

    HEAD CHANGE   HEAD CHANGE   HEAD CHANGE   HEAD CHANGE   HEAD CHANGE
  LAYER,ROW,COL LAYER,ROW,COL LAYER,ROW,COL LAYER,ROW,COL LAYER,ROW,COL
 ----------------------------------------------------------------------
     -2.155       -0.9448       -0.5397       -0.1841       -0.4643E-01
  (  1,  7,  1) (  1,  6,  5) (  1,  6,  5) (  1,  7,  5) (  1,  7,  5)
    -0.6976E-02   -0.4581E-02   -0.2456E-02   -0.8271E-03
  (  1,  7,  8) (  1,  7,  5) (  1,  7,  5) (  1,  7,  5)


 NO OUTPUT CONTROL FOR STRESS PERIOD    1   TIME STEP  27
 
 SOLVING FOR HEAD 
    10 ITERATIONS FOR TIME STEP  28 IN STRESS PERIOD    1

 MAXIMUM HEAD CHANGE FOR EACH ITERATION:

    HEAD CHANGE   HEAD CHANGE   HEAD CHANGE   HEAD CHANGE   HEAD CHANGE
  LAYER,ROW,COL LAYER,ROW,COL LAYER,ROW,COL LAYER,ROW,COL LAYER,ROW,COL
 ----------------------------------------------------------------------
     -2.259       -0.9865       -0.5932       -0.2089       -0.5401E-01
  (  1,  7,  1) (  1,  6,  5) (  1,  6,  5) (  1,  7,  5) (  1,  7,  5)
    -0.8165E-02   -0.5422E-02   -0.3029E-02   -0.1063E-02   -0.2808E-03
  (  1,  7,  8) (  1,  6,  5) (  1,  7,  5) (  1,  7,  5) (  1,  7,  5)


 NO OUTPUT CONTROL FOR STRESS PERIOD    1   TIME STEP  28
 
 SOLVING FOR HEAD 
    10 ITERATIONS FOR TIME STEP  29 IN STRESS PERIOD    1

 MAXIMUM HEAD CHANGE FOR EACH ITERATION:

    HEAD CHANGE   HEAD CHANGE   HEAD CHANGE   HEAD CHANGE   HEAD CHANGE
  LAYER,ROW,COL LAYER,ROW,COL LAYER,ROW,COL LAYER,ROW,COL LAYER,ROW,COL
 ----------------------------------------------------------------------
     -2.355        -1.022       -0.6471       -0.2366       -0.6274E-01
  (  1,  7,  1) (  1,  6,  5) (  1,  6,  5) (  1,  6,  5) (  1,  7,  5)
    -0.9490E-02   -0.6414E-02   -0.3725E-02   -0.1359E-02   -0.3683E-03
  (  1,  7,  8) (  1,  6,  5) (  1,  7,  5) (  1,  7,  5) (  1,  7,  5)


 NO OUTPUT CONTROL FOR STRESS PERIOD    1   TIME STEP  29
 
 SOLVING FOR HEAD 
    10 ITERATIONS FOR TIME STEP  30 IN STRESS PERIOD    1

 MAXIMUM HEAD CHANGE FOR EACH ITERATION:

    HEAD CHANGE   HEAD CHANGE   HEAD CHANGE   HEAD CHANGE   HEAD CHANGE
  LAYER,ROW,COL LAYER,ROW,COL LAYER,ROW,COL LAYER,ROW,COL LAYER,ROW,COL
 ----------------------------------------------------------------------
     -2.441        -1.062       -0.7052       -0.2681       -0.7281E-01
  (  1,  7,  1) (  1,  6,  8) (  1,  6,  5) (  1,  6,  5) (  1,  7,  5)
    -0.1108E-01   -0.7546E-02   -0.4575E-02   -0.1744E-02   -0.4797E-03
  (  1,  7,  8) (  1,  6,  5) (  1,  7,  5) (  1,  6,  5) (  1,  7,  5)


 OUTPUT CONTROL FOR STRESS PERIOD    1   TIME STEP  30
    PRINT BUDGET
    PRINT HEAD FOR ALL LAYERS
    SAVE BUDGET

            WELLS   PERIOD    1   STEP  30
 WELL      1   LAYER   1   ROW     6   COL     4   RATE    -10.0000    
 WELL      2   LAYER   1   ROW     6   COL     5   RATE    -10.0000    
 WELL      3   LAYER   1   ROW     7   COL     4   RATE    -10.0000    
 WELL      4   LAYER   1   ROW     7   COL     5   RATE    -10.0000    
 WELL      5   LAYER   1   ROW     8   COL     4   RATE    -10.0000    
 WELL      6   LAYER   1   ROW     8   COL     5   RATE    -10.0000    
 WELL      7   LAYER   1   ROW     9   COL     4   RATE    -10.0000    
 WELL      8   LAYER   1   ROW     9   COL     5   RATE    -10.0000    
 WELL      9   LAYER   1   ROW    10   COL     4   RATE    -10.0000    
 WELL     10   LAYER   1   ROW    10   COL     5   RATE    -10.0000    
 UBUDSV SAVING "              ET" ON UNIT 59 AT TIME STEP 30, STRESS PERIOD    1

  HEAD DEP BOUNDS   PERIOD    1   STEP  30
 BOUNDARY      1   LAYER   1   ROW    13   COL     1   RATE   -0.232221    
 BOUNDARY      2   LAYER   1   ROW    14   COL     9   RATE    0.216625    



   STREAM LEAKAGE   PERIOD    1   STEP  30

 LAYER ROW COL. STREAM  RCH.  FLOW INTO    FLOW TO  FLOW OUT OF  OVRLND.   DIRECT    STREAM    STREAM    STREAM    STREAM  STREAMBED  STREAMBED
                SEG.NO.  NO.  STRM. RCH.   AQUIFER   STRM. RCH.  RUNOFF    PRECIP      ET       HEAD      DEPTH     WIDTH  CONDCTNC.   GRADIENT

   1    1    1     1     1    2.500E+01   1.965E+00  2.304E+01  0.00E+00  0.00E+00  0.00E+00  1.09E+03  1.17E+00  1.29E+01  5.79E-01  1.13E+00
   1    2    2     1     2    2.304E+01   3.544E+00  1.949E+01  0.00E+00  0.00E+00  0.00E+00  1.09E+03  1.12E+00  1.23E+01  8.60E-01  1.37E+00
   1    3    3     1     3    1.949E+01   2.787E+00  1.670E+01  0.00E+00  0.00E+00  0.00E+00  1.08E+03  1.07E+00  1.14E+01  6.85E-01  1.36E+00
   1    3    4     1     4    1.670E+01   2.362E+00  1.434E+01  0.00E+00  0.00E+00  0.00E+00  1.08E+03  1.02E+00  1.06E+01  5.87E-01  1.34E+00
   1    4    5     2     1    4.343E+00   2.670E+00  1.673E+00  0.00E+00  0.00E+00  0.00E+00  1.07E+03  4.22E-01  1.20E+01  7.80E-01  1.14E+00
   1    5    6     2     2    1.673E+00   1.673E+00  0.000E+00  0.00E+00  0.00E+00  0.00E+00  1.07E+03  2.38E-01  1.20E+01  6.00E-01  1.08E+00
   1    6    6     2     3    0.000E+00   0.000E+00  0.000E+00  0.00E+00  0.00E+00  0.00E+00  1.06E+03  0.00E+00  1.20E+01  6.00E-01  1.00E+00
   1    7    6     2     4    0.000E+00   0.000E+00  0.000E+00  0.00E+00  0.00E+00  0.00E+00  1.06E+03  0.00E+00  1.20E+01  6.00E-01  1.00E+00
   1    8    6     2     5    0.000E+00   0.000E+00  0.000E+00  0.00E+00  0.00E+00  0.00E+00  1.05E+03  0.00E+00  1.20E+01  6.00E-01  1.00E+00
   1    3    5     3     1    1.000E+01   2.825E+00  7.175E+00  0.00E+00  0.00E+00  0.00E+00  1.08E+03  1.91E+00  9.64E+00  7.23E-01  1.95E+00
   1    3    6     3     2    7.175E+00   2.491E+00  4.684E+00  0.00E+00  0.00E+00  0.00E+00  1.07E+03  1.73E+00  8.91E+00  6.68E-01  1.86E+00
   1    3    7     3     3    4.684E+00   1.972E+00  2.712E+00  0.00E+00  0.00E+00  0.00E+00  1.07E+03  1.55E+00  8.22E+00  5.55E-01  1.78E+00
   1    4    8     3     4    2.712E+00   2.257E+00  4.558E-01  0.00E+00  0.00E+00  0.00E+00  1.07E+03  1.36E+00  7.45E+00  6.71E-01  1.68E+00
   1    5    8     3     5    4.558E-01   4.558E-01  0.000E+00  0.00E+00  0.00E+00  0.00E+00  1.06E+03  1.16E+00  6.65E+00  4.99E-01  1.58E+00
   1    6    8     3     6    0.000E+00   0.000E+00  0.000E+00  0.00E+00  0.00E+00  0.00E+00  1.06E+03  0.00E+00  6.15E+00  1.84E-01  1.00E+00
   1    5   10     4     1    1.000E+01   9.096E-01  9.090E+00  0.00E+00  0.00E+00  0.00E+00  1.08E+03  6.39E-01  1.00E+01  2.50E-01  1.21E+00
   1    5    9     4     2    9.090E+00   1.802E+00  7.289E+00  0.00E+00  0.00E+00  0.00E+00  1.07E+03  6.03E-01  1.00E+01  5.00E-01  1.20E+00
   1    6    8     4     3    7.289E+00   1.235E+00  6.054E+00  0.00E+00  0.00E+00  0.00E+00  1.06E+03  5.28E-01  1.00E+01  3.50E-01  1.18E+00
   1    6    8     5     1    6.054E+00   1.466E+00  4.588E+00  0.00E+00  0.00E+00  0.00E+00  1.06E+03  5.39E-01  1.04E+01  4.14E-01  1.18E+00
   1    7    7     5     2    4.588E+00   1.484E+00  3.104E+00  0.00E+00  0.00E+00  0.00E+00  1.05E+03  4.81E-01  8.53E+00  4.26E-01  1.16E+00
   1    8    7     5     3    3.104E+00   8.249E-01  2.279E+00  0.00E+00  0.00E+00  0.00E+00  1.05E+03  4.24E-01  6.88E+00  2.41E-01  1.14E+00
   1    8    6     5     4    2.279E+00   4.921E-01  1.787E+00  0.00E+00  0.00E+00  0.00E+00  1.05E+03  3.85E-01  5.82E+00  1.45E-01  1.13E+00
   1    9    6     6     1    1.787E+00   1.787E+00  0.000E+00  0.00E+00  0.00E+00  0.00E+00  1.04E+03  2.51E-01  1.20E+01  6.00E-01  1.08E+00
   1   10    7     6     2    0.000E+00   0.000E+00  0.000E+00  0.00E+00  0.00E+00  0.00E+00  1.04E+03  0.00E+00  1.20E+01  6.00E-01  1.00E+00
   1   11    7     6     3    0.000E+00   0.000E+00  0.000E+00  0.00E+00  0.00E+00  0.00E+00  1.03E+03  0.00E+00  1.20E+01  6.00E-01  1.00E+00
   1   12    7     6     4    0.000E+00   0.000E+00  0.000E+00  0.00E+00  0.00E+00  0.00E+00  1.03E+03  0.00E+00  1.20E+01  6.00E-01  1.00E+00
   1   13    7     6     5    0.000E+00  -4.828E-01  4.828E-01  0.00E+00  0.00E+00  0.00E+00  1.03E+03  7.54E-02  1.20E+01  2.40E-01 -6.71E-01
   1   14    9     7     1    1.500E+02   3.155E+00  1.468E+02  0.00E+00  0.00E+00  0.00E+00  1.04E+03  2.28E+00  5.53E+01  5.59E+00  1.88E-01
   1   13    8     7     2    1.468E+02   5.492E+00  1.414E+02  0.00E+00  0.00E+00  0.00E+00  1.03E+03  2.26E+00  5.52E+01  6.14E+00  2.98E-01
   1   13    7     7     3    1.414E+02   9.134E+00  1.322E+02  0.00E+00  0.00E+00  0.00E+00  1.03E+03  2.22E+00  5.50E+01  5.56E+00  5.48E-01
   1   13    6     8     1    1.327E+02   8.776E+00  1.239E+02  0.00E+00  0.00E+00  0.00E+00  1.02E+03  2.66E+00  3.85E+01  3.93E+00  7.45E-01
   1   13    5     8     2    1.239E+02   7.408E+00  1.165E+02  0.00E+00  0.00E+00  0.00E+00  1.02E+03  2.59E+00  3.76E+01  3.83E+00  6.45E-01
   1   13    4     8     3    1.165E+02   4.726E+00  1.118E+02  0.00E+00  0.00E+00  0.00E+00  1.01E+03  2.54E+00  3.69E+01  3.76E+00  4.19E-01
   1   13    3     8     4    1.118E+02   1.723E+00  1.101E+02  0.00E+00  0.00E+00  0.00E+00  1.01E+03  2.52E+00  3.65E+01  3.72E+00  1.55E-01
   1   13    2     8     5    1.101E+02   8.275E-02  1.100E+02  0.00E+00  0.00E+00  0.00E+00  9.99E+02  2.51E+00  3.64E+01  3.71E+00  7.44E-03
   1   13    1     8     6    1.100E+02   5.969E-01  1.094E+02  0.00E+00  0.00E+00  0.00E+00  9.94E+02  2.50E+00  3.63E+01  2.22E+00  8.96E-02



1
              HEAD IN LAYER   1 AT END OF TIME STEP  30 IN STRESS PERIOD    1
  ---------------------------------------------------------------------------

           1       2       3       4       5       6       7       8       9      10
 ...................................................................................
   1  1090.82 1081.51 6999.00 6999.00 6999.00 6999.00 6999.00 6999.00 6999.00 6999.00
   2  1082.87 1072.88 1059.70 6999.00 6999.00 1053.12 1055.94 1057.49 6999.00 6999.00
   3  6999.00 1056.85 1048.64 1040.17 1040.39 1044.26 1050.24 1051.20 6999.00 6999.00
   4  1043.14 1041.32 1035.43 1027.45 1025.41 1025.51 1032.13 1043.06 1042.24 6999.00
   5  1035.60 1028.26 1020.26 1014.05 1014.46 1018.21 1021.61 1027.61 1036.06 1042.41
   6  1026.77 1017.07 1006.46  997.76 1000.40 1009.17 1015.89 1022.40 1031.19 1041.49
   7  1020.56 1007.97  996.35  987.21  991.24 1001.95 1010.31 1016.69 1025.57 6999.00
   8  6999.00  999.24  989.66  980.96  985.96  997.09 1004.24 1012.66 1022.14 6999.00
   9  6999.00  995.44  987.77  980.21  985.39  996.00 1001.77 1009.74 1019.69 6999.00
  10  6999.00  996.25  991.10  985.39  989.57  998.29 1003.45 1010.74 1020.25 1028.28
  11  6999.00  999.54  998.78  997.18  999.90 1004.76 1008.81 1015.17 1021.97 6999.00
  12   997.53 1000.93 1004.02 1005.05 1008.41 1012.81 1016.90 1023.94 1028.82 6999.00
  13   994.11  999.36 1005.18 1010.66 1016.28 1022.30 1028.00 1033.86 1035.52 6999.00
  14  6999.00 1003.18 1007.57 1011.91 1016.99 1022.45 1028.51 1034.82 1039.30 6999.00
  15  6999.00 6999.00 1010.81 1013.81 1017.76 1021.12 6999.00 6999.00 6999.00 6999.00
1
  VOLUMETRIC BUDGET FOR ENTIRE MODEL AT END OF TIME STEP 30 IN STRESS PERIOD   1
  ------------------------------------------------------------------------------

     CUMULATIVE VOLUMES      L**3       RATES FOR THIS TIME STEP      L**3/T
     ------------------                 ------------------------

           IN:                                      IN:
           ---                                      ---
             STORAGE = 12161493000.0000               STORAGE =          38.5317
       CONSTANT HEAD =           0.0000         CONSTANT HEAD =           0.0000
               WELLS =           0.0000                 WELLS =           0.0000
                  ET =           0.0000                    ET =           0.0000
     HEAD DEP BOUNDS =    48155672.0000       HEAD DEP BOUNDS =           0.2166
            RECHARGE =   400006336.0000              RECHARGE =           1.7937
      STREAM LEAKAGE = 14271922200.0000        STREAM LEAKAGE =          76.0941

            TOTAL IN = 26881577000.0000              TOTAL IN =         116.6362

          OUT:                                     OUT:
          ----                                     ----
             STORAGE =     1790008.6200               STORAGE =           0.0000
       CONSTANT HEAD =           0.0000         CONSTANT HEAD =           0.0000
               WELLS = 22300004400.0000                 WELLS =         100.0000
                  ET =  4097206780.0000                    ET =          15.9235
     HEAD DEP BOUNDS =    53145396.0000       HEAD DEP BOUNDS =           0.2322
            RECHARGE =           0.0000              RECHARGE =           0.0000
      STREAM LEAKAGE =   430308256.0000        STREAM LEAKAGE =           0.4828

           TOTAL OUT = 26882455600.0000             TOTAL OUT =         116.6385

            IN - OUT =     -877620.6250              IN - OUT =      -2.2564E-03

 PERCENT DISCREPANCY =           0.00     PERCENT DISCREPANCY =           0.00






          TIME SUMMARY AT END OF TIME STEP  30 IN STRESS PERIOD    1
                    SECONDS     MINUTES      HOURS       DAYS        YEARS
                    -----------------------------------------------------------
   TIME STEP LENGTH 2.15052E+07 3.58419E+05  5973.7      248.90     0.68146    
 STRESS PERIOD TIME 2.23000E+08 3.71667E+06  61944.      2581.0      7.0664    
         TOTAL TIME 2.23000E+08 3.71667E+06  61944.      2581.0      7.0664    
1
 
 SOLVING FOR HEAD 
    10 ITERATIONS FOR TIME STEP  31 IN STRESS PERIOD    1

 MAXIMUM HEAD CHANGE FOR EACH ITERATION:

    HEAD CHANGE   HEAD CHANGE   HEAD CHANGE   HEAD CHANGE   HEAD CHANGE
  LAYER,ROW,COL LAYER,ROW,COL LAYER,ROW,COL LAYER,ROW,COL LAYER,ROW,COL
 ----------------------------------------------------------------------
     -2.518        -1.106       -0.7681       -0.3022       -0.8462E-01
  (  1,  7,  1) (  1,  6,  8) (  1,  5,  5) (  1,  6,  5) (  1,  2,  3)
    -0.1281E-01   -0.8837E-02   -0.5600E-02   -0.2226E-02   -0.6253E-03
  (  1,  7,  8) (  1,  6,  5) (  1,  7,  5) (  1,  6,  5) (  1,  7,  5)


 NO OUTPUT CONTROL FOR STRESS PERIOD    1   TIME STEP  31
 
 SOLVING FOR HEAD 
    10 ITERATIONS FOR TIME STEP  32 IN STRESS PERIOD    1

 MAXIMUM HEAD CHANGE FOR EACH ITERATION:

    HEAD CHANGE   HEAD CHANGE   HEAD CHANGE   HEAD CHANGE   HEAD CHANGE
  LAYER,ROW,COL LAYER,ROW,COL LAYER,ROW,COL LAYER,ROW,COL LAYER,ROW,COL
 ----------------------------------------------------------------------
     -2.585        -1.146       -0.8321       -0.3390       -0.9956E-01
  (  1,  7,  1) (  1,  6,  8) (  1,  5,  5) (  1,  6,  5) (  1,  2,  3)
    -0.1478E-01   -0.1031E-01   -0.6818E-02   -0.2837E-02   -0.8159E-03
  (  1,  7,  8) (  1,  6,  5) (  1,  7,  5) (  1,  6,  5) (  1,  7,  5)


 NO OUTPUT CONTROL FOR STRESS PERIOD    1   TIME STEP  32
 
 SOLVING FOR HEAD 
    11 ITERATIONS FOR TIME STEP  33 IN STRESS PERIOD    1

 MAXIMUM HEAD CHANGE FOR EACH ITERATION:

    HEAD CHANGE   HEAD CHANGE   HEAD CHANGE   HEAD CHANGE   HEAD CHANGE
  LAYER,ROW,COL LAYER,ROW,COL LAYER,ROW,COL LAYER,ROW,COL LAYER,ROW,COL
 ----------------------------------------------------------------------
     -2.641        -1.176       -0.8829       -0.3706       -0.1157    
  (  1,  7,  1) (  1,  6,  8) (  1,  5,  5) (  1,  6,  5) (  1,  2,  3)
    -0.1700E-01   -0.1164E-01   -0.8061E-02   -0.3498E-02   -0.1023E-02
  (  1,  6,  9) (  1,  6,  5) (  1,  7,  5) (  1,  6,  5) (  1,  7,  5)
    -0.3078E-03
  (  1,  2,  3)


 OUTPUT CONTROL FOR STRESS PERIOD    1   TIME STEP  33
    PRINT BUDGET
    PRINT HEAD FOR ALL LAYERS
    SAVE BUDGET

            WELLS   PERIOD    1   STEP  33
 WELL      1   LAYER   1   ROW     6   COL     4   RATE    -10.0000    
 WELL      2   LAYER   1   ROW     6   COL     5   RATE    -10.0000    
 WELL      3   LAYER   1   ROW     7   COL     4   RATE    -10.0000    
 WELL      4   LAYER   1   ROW     7   COL     5   RATE    -10.0000    
 WELL      5   LAYER   1   ROW     8   COL     4   RATE    -10.0000    
 WELL      6   LAYER   1   ROW     8   COL     5   RATE    -10.0000    
 WELL      7   LAYER   1   ROW     9   COL     4   RATE    -10.0000    
 WELL      8   LAYER   1   ROW     9   COL     5   RATE    -10.0000    
 WELL      9   LAYER   1   ROW    10   COL     4   RATE    -10.0000    
 WELL     10   LAYER   1   ROW    10   COL     5   RATE    -10.0000    
 UBUDSV SAVING "              ET" ON UNIT 59 AT TIME STEP 33, STRESS PERIOD    1

  HEAD DEP BOUNDS   PERIOD    1   STEP  33
 BOUNDARY      1   LAYER   1   ROW    13   COL     1   RATE   -0.229493    
 BOUNDARY      2   LAYER   1   ROW    14   COL     9   RATE    0.217003    



   STREAM LEAKAGE   PERIOD    1   STEP  33

 LAYER ROW COL. STREAM  RCH.  FLOW INTO    FLOW TO  FLOW OUT OF  OVRLND.   DIRECT    STREAM    STREAM    STREAM    STREAM  STREAMBED  STREAMBED
                SEG.NO.  NO.  STRM. RCH.   AQUIFER   STRM. RCH.  RUNOFF    PRECIP      ET       HEAD      DEPTH     WIDTH  CONDCTNC.   GRADIENT

   1    1    1     1     1    2.500E+01   2.401E+00  2.260E+01  0.00E+00  0.00E+00  0.00E+00  1.09E+03  1.16E+00  1.28E+01  5.77E-01  1.39E+00
   1    2    2     1     2    2.260E+01   3.511E+00  1.909E+01  0.00E+00  0.00E+00  0.00E+00  1.09E+03  1.11E+00  1.22E+01  8.53E-01  1.37E+00
   1    3    3     1     3    1.909E+01   2.753E+00  1.634E+01  0.00E+00  0.00E+00  0.00E+00  1.08E+03  1.06E+00  1.13E+01  6.78E-01  1.35E+00
   1    3    4     1     4    1.634E+01   2.331E+00  1.400E+01  0.00E+00  0.00E+00  0.00E+00  1.08E+03  1.02E+00  1.05E+01  5.80E-01  1.34E+00
   1    4    5     2     1    4.004E+00   2.654E+00  1.350E+00  0.00E+00  0.00E+00  0.00E+00  1.07E+03  4.02E-01  1.20E+01  7.80E-01  1.13E+00
   1    5    6     2     2    1.350E+00   1.350E+00  0.000E+00  0.00E+00  0.00E+00  0.00E+00  1.07E+03  2.10E-01  1.20E+01  6.00E-01  1.07E+00
   1    6    6     2     3    0.000E+00   0.000E+00  0.000E+00  0.00E+00  0.00E+00  0.00E+00  1.06E+03  0.00E+00  1.20E+01  6.00E-01  1.00E+00
   1    7    6     2     4    0.000E+00   0.000E+00  0.000E+00  0.00E+00  0.00E+00  0.00E+00  1.06E+03  0.00E+00  1.20E+01  6.00E-01  1.00E+00
   1    8    6     2     5    0.000E+00   0.000E+00  0.000E+00  0.00E+00  0.00E+00  0.00E+00  1.05E+03  0.00E+00  1.20E+01  6.00E-01  1.00E+00
   1    3    5     3     1    1.000E+01   2.825E+00  7.175E+00  0.00E+00  0.00E+00  0.00E+00  1.08E+03  1.91E+00  9.64E+00  7.23E-01  1.95E+00
   1    3    6     3     2    7.175E+00   2.491E+00  4.684E+00  0.00E+00  0.00E+00  0.00E+00  1.07E+03  1.73E+00  8.91E+00  6.68E-01  1.86E+00
   1    3    7     3     3    4.684E+00   1.972E+00  2.712E+00  0.00E+00  0.00E+00  0.00E+00  1.07E+03  1.55E+00  8.22E+00  5.55E-01  1.78E+00
   1    4    8     3     4    2.712E+00   2.257E+00  4.558E-01  0.00E+00  0.00E+00  0.00E+00  1.07E+03  1.36E+00  7.45E+00  6.71E-01  1.68E+00
   1    5    8     3     5    4.558E-01   4.558E-01  0.000E+00  0.00E+00  0.00E+00  0.00E+00  1.06E+03  1.16E+00  6.65E+00  4.99E-01  1.58E+00
   1    6    8     3     6    0.000E+00   0.000E+00  0.000E+00  0.00E+00  0.00E+00  0.00E+00  1.06E+03  0.00E+00  6.15E+00  1.84E-01  1.00E+00
   1    5   10     4     1    1.000E+01   9.096E-01  9.090E+00  0.00E+00  0.00E+00  0.00E+00  1.08E+03  6.39E-01  1.00E+01  2.50E-01  1.21E+00
   1    5    9     4     2    9.090E+00   1.802E+00  7.289E+00  0.00E+00  0.00E+00  0.00E+00  1.07E+03  6.03E-01  1.00E+01  5.00E-01  1.20E+00
   1    6    8     4     3    7.289E+00   1.235E+00  6.054E+00  0.00E+00  0.00E+00  0.00E+00  1.06E+03  5.28E-01  1.00E+01  3.50E-01  1.18E+00
   1    6    8     5     1    6.054E+00   1.466E+00  4.588E+00  0.00E+00  0.00E+00  0.00E+00  1.06E+03  5.39E-01  1.04E+01  4.14E-01  1.18E+00
   1    7    7     5     2    4.588E+00   1.484E+00  3.104E+00  0.00E+00  0.00E+00  0.00E+00  1.05E+03  4.81E-01  8.53E+00  4.26E-01  1.16E+00
   1    8    7     5     3    3.104E+00   8.249E-01  2.279E+00  0.00E+00  0.00E+00  0.00E+00  1.05E+03  4.24E-01  6.88E+00  2.41E-01  1.14E+00
   1    8    6     5     4    2.279E+00   4.921E-01  1.787E+00  0.00E+00  0.00E+00  0.00E+00  1.05E+03  3.85E-01  5.82E+00  1.45E-01  1.13E+00
   1    9    6     6     1    1.787E+00   1.787E+00  0.000E+00  0.00E+00  0.00E+00  0.00E+00  1.04E+03  2.51E-01  1.20E+01  6.00E-01  1.08E+00
   1   10    7     6     2    0.000E+00   0.000E+00  0.000E+00  0.00E+00  0.00E+00  0.00E+00  1.04E+03  0.00E+00  1.20E+01  6.00E-01  1.00E+00
   1   11    7     6     3    0.000E+00   0.000E+00  0.000E+00  0.00E+00  0.00E+00  0.00E+00  1.03E+03  0.00E+00  1.20E+01  6.00E-01  1.00E+00
   1   12    7     6     4    0.000E+00   0.000E+00  0.000E+00  0.00E+00  0.00E+00  0.00E+00  1.03E+03  0.00E+00  1.20E+01  6.00E-01  1.00E+00
   1   13    7     6     5    0.000E+00  -4.387E-01  4.387E-01  0.00E+00  0.00E+00  0.00E+00  1.03E+03  7.11E-02  1.20E+01  2.40E-01 -6.09E-01
   1   14    9     7     1    1.500E+02   3.210E+00  1.468E+02  0.00E+00  0.00E+00  0.00E+00  1.04E+03  2.28E+00  5.53E+01  5.59E+00  1.91E-01
   1   13    8     7     2    1.468E+02   5.823E+00  1.410E+02  0.00E+00  0.00E+00  0.00E+00  1.03E+03  2.26E+00  5.52E+01  6.14E+00  3.16E-01
   1   13    7     7     3    1.410E+02   1.015E+01  1.308E+02  0.00E+00  0.00E+00  0.00E+00  1.03E+03  2.22E+00  5.50E+01  5.56E+00  6.09E-01
   1   13    6     8     1    1.313E+02   9.902E+00  1.214E+02  0.00E+00  0.00E+00  0.00E+00  1.02E+03  2.64E+00  3.83E+01  3.90E+00  8.46E-01
   1   13    5     8     2    1.214E+02   8.633E+00  1.127E+02  0.00E+00  0.00E+00  0.00E+00  1.02E+03  2.57E+00  3.72E+01  3.79E+00  7.59E-01
   1   13    4     8     3    1.127E+02   5.754E+00  1.070E+02  0.00E+00  0.00E+00  0.00E+00  1.01E+03  2.51E+00  3.63E+01  3.70E+00  5.18E-01
   1   13    3     8     4    1.070E+02   2.386E+00  1.046E+02  0.00E+00  0.00E+00  0.00E+00  1.01E+03  2.47E+00  3.58E+01  3.65E+00  2.18E-01
   1   13    2     8     5    1.046E+02   2.700E-01  1.043E+02  0.00E+00  0.00E+00  0.00E+00  9.99E+02  2.46E+00  3.57E+01  3.63E+00  2.48E-02
   1   13    1     8     6    1.043E+02   6.333E-01  1.037E+02  0.00E+00  0.00E+00  0.00E+00  9.94E+02  2.46E+00  3.56E+01  2.18E+00  9.70E-02



1
              HEAD IN LAYER   1 AT END OF TIME STEP  33 IN STRESS PERIOD    1
  ---------------------------------------------------------------------------

           1       2       3       4       5       6       7       8       9      10
 ...................................................................................
   1  1089.24 1077.17 6999.00 6999.00 6999.00 6999.00 6999.00 6999.00 6999.00 6999.00
   2  1078.76 1066.22 1051.48 6999.00 6999.00 1043.64 1046.62 1048.33 6999.00 6999.00
   3  6999.00 1048.38 1039.37 1030.50 1030.60 1034.46 1040.57 1041.57 6999.00 6999.00
   4  1033.01 1031.52 1025.61 1017.48 1015.34 1015.36 1022.07 1033.30 1032.22 6999.00
   5  1025.10 1017.82 1010.05 1003.95 1004.35 1008.04 1011.53 1017.51 1025.92 1032.48
   6  1015.95 1006.44  996.22  987.72  990.46  999.34 1006.08 1012.52 1021.07 1031.44
   7  1009.67  997.57  986.50  977.64  981.85  992.71 1001.03 1007.08 1015.90 6999.00
   8  6999.00  989.86  980.73  972.31  977.53  988.82  995.95 1003.85 1013.23 6999.00
   9  6999.00  987.56  980.27  972.94  978.28  989.02  994.80 1002.45 1012.24 6999.00
  10  6999.00  990.30  985.43  979.78  983.97  992.76  997.96 1005.15 1014.53 1022.40
  11  6999.00  995.90  995.36  993.38  996.02 1000.87 1004.96 1011.39 1018.18 6999.00
  12   996.84  999.58 1002.52 1003.05 1006.28 1010.68 1014.85 1022.28 1027.25 6999.00
  13   994.04  999.26 1004.94 1010.33 1015.91 1021.98 1027.81 1033.81 1035.35 6999.00
  14  6999.00 1002.97 1007.27 1011.55 1016.62 1022.13 1028.32 1034.75 1039.29 6999.00
  15  6999.00 6999.00 1010.42 1013.39 1017.34 1020.72 6999.00 6999.00 6999.00 6999.00
1
  VOLUMETRIC BUDGET FOR ENTIRE MODEL AT END OF TIME STEP 33 IN STRESS PERIOD   1
  ------------------------------------------------------------------------------

     CUMULATIVE VOLUMES      L**3       RATES FOR THIS TIME STEP      L**3/T
     ------------------                 ------------------------

           IN:                                      IN:
           ---                                      ---
             STORAGE = 14856623100.0000               STORAGE =          32.5263
       CONSTANT HEAD =           0.0000         CONSTANT HEAD =           0.0000
               WELLS =           0.0000                 WELLS =           0.0000
                  ET =           0.0000                    ET =           0.0000
     HEAD DEP BOUNDS =    65137716.0000       HEAD DEP BOUNDS =           0.2170
            RECHARGE =   540457536.0000              RECHARGE =           1.7937
      STREAM LEAKAGE = 20533884900.0000        STREAM LEAKAGE =          81.7605

            TOTAL IN = 35996102700.0000              TOTAL IN =         116.2976

          OUT:                                     OUT:
          ----                                     ----
             STORAGE =     1790008.6200               STORAGE =           0.0000
       CONSTANT HEAD =           0.0000         CONSTANT HEAD =           0.0000
               WELLS = 30130036700.0000                 WELLS =         100.0000
                  ET =  5328361470.0000                    ET =          15.6308
     HEAD DEP BOUNDS =    71182336.0000       HEAD DEP BOUNDS =           0.2295
            RECHARGE =           0.0000              RECHARGE =           0.0000
      STREAM LEAKAGE =   465755136.0000        STREAM LEAKAGE =           0.4387

           TOTAL OUT = 35997126700.0000             TOTAL OUT =         116.2990

            IN - OUT =    -1022404.6200              IN - OUT =      -1.4392E-03

 PERCENT DISCREPANCY =           0.00     PERCENT DISCREPANCY =           0.00






          TIME SUMMARY AT END OF TIME STEP  33 IN STRESS PERIOD    1
                    SECONDS     MINUTES      HOURS       DAYS        YEARS
                    -----------------------------------------------------------
   TIME STEP LENGTH 2.86234E+07 4.77056E+05  7950.9      331.29     0.90702    
 STRESS PERIOD TIME 3.01300E+08 5.02167E+06  83695.      3487.3      9.5476    
         TOTAL TIME 3.01300E+08 5.02167E+06  83695.      3487.3      9.5476    
1
 
 SOLVING FOR HEAD 
    11 ITERATIONS FOR TIME STEP  34 IN STRESS PERIOD    1

 MAXIMUM HEAD CHANGE FOR EACH ITERATION:

    HEAD CHANGE   HEAD CHANGE   HEAD CHANGE   HEAD CHANGE   HEAD CHANGE
  LAYER,ROW,COL LAYER,ROW,COL LAYER,ROW,COL LAYER,ROW,COL LAYER,ROW,COL
 ----------------------------------------------------------------------
     -2.685        -1.194       -0.9335       -0.4068       -0.1326    
  (  1,  7,  1) (  1,  6,  8) (  1,  5,  5) (  1,  6,  5) (  1,  2,  3)
    -0.2050E-01   -0.1344E-01   -0.9615E-02   -0.4370E-02   -0.1309E-02
  (  1,  6,  9) (  1,  3,  4) (  1,  7,  5) (  1,  6,  5) (  1,  7,  5)
    -0.3954E-03
  (  1,  2,  3)


 NO OUTPUT CONTROL FOR STRESS PERIOD    1   TIME STEP  34
 
 SOLVING FOR HEAD 
    11 ITERATIONS FOR TIME STEP  35 IN STRESS PERIOD    1

 MAXIMUM HEAD CHANGE FOR EACH ITERATION:

    HEAD CHANGE   HEAD CHANGE   HEAD CHANGE   HEAD CHANGE   HEAD CHANGE
  LAYER,ROW,COL LAYER,ROW,COL LAYER,ROW,COL LAYER,ROW,COL LAYER,ROW,COL
 ----------------------------------------------------------------------
     -2.715        -1.203       -0.9840       -0.4437       -0.1533    
  (  1,  7,  1) (  1,  6,  8) (  1,  5,  5) (  1,  6,  5) (  1,  2,  3)
    -0.2459E-01   -0.1550E-01   -0.1136E-01   -0.5408E-02   -0.1657E-02
  (  1,  6,  9) (  1,  3,  4) (  1,  7,  5) (  1,  6,  5) (  1,  7,  5)
    -0.5046E-03
  (  1,  2,  3)


 OUTPUT CONTROL FOR STRESS PERIOD    1   TIME STEP  35
    PRINT BUDGET
    PRINT HEAD FOR ALL LAYERS
    SAVE BUDGET

            WELLS   PERIOD    1   STEP  35
 WELL      1   LAYER   1   ROW     6   COL     4   RATE    -10.0000    
 WELL      2   LAYER   1   ROW     6   COL     5   RATE    -10.0000    
 WELL      3   LAYER   1   ROW     7   COL     4   RATE    -10.0000    
 WELL      4   LAYER   1   ROW     7   COL     5   RATE    -10.0000    
 WELL      5   LAYER   1   ROW     8   COL     4   RATE    -10.0000    
 WELL      6   LAYER   1   ROW     8   COL     5   RATE    -10.0000    
 WELL      7   LAYER   1   ROW     9   COL     4   RATE    -10.0000    
 WELL      8   LAYER   1   ROW     9   COL     5   RATE    -10.0000    
 WELL      9   LAYER   1   ROW    10   COL     4   RATE    -10.0000    
 WELL     10   LAYER   1   ROW    10   COL     5   RATE    -10.0000    
 UBUDSV SAVING "              ET" ON UNIT 59 AT TIME STEP 35, STRESS PERIOD    1

  HEAD DEP BOUNDS   PERIOD    1   STEP  35
 BOUNDARY      1   LAYER   1   ROW    13   COL     1   RATE   -0.227613    
 BOUNDARY      2   LAYER   1   ROW    14   COL     9   RATE    0.217263    



   STREAM LEAKAGE   PERIOD    1   STEP  35

 LAYER ROW COL. STREAM  RCH.  FLOW INTO    FLOW TO  FLOW OUT OF  OVRLND.   DIRECT    STREAM    STREAM    STREAM    STREAM  STREAMBED  STREAMBED
                SEG.NO.  NO.  STRM. RCH.   AQUIFER   STRM. RCH.  RUNOFF    PRECIP      ET       HEAD      DEPTH     WIDTH  CONDCTNC.   GRADIENT

   1    1    1     1     1    2.500E+01   2.401E+00  2.260E+01  0.00E+00  0.00E+00  0.00E+00  1.09E+03  1.16E+00  1.28E+01  5.77E-01  1.39E+00
   1    2    2     1     2    2.260E+01   3.511E+00  1.909E+01  0.00E+00  0.00E+00  0.00E+00  1.09E+03  1.11E+00  1.22E+01  8.53E-01  1.37E+00
   1    3    3     1     3    1.909E+01   2.753E+00  1.634E+01  0.00E+00  0.00E+00  0.00E+00  1.08E+03  1.06E+00  1.13E+01  6.78E-01  1.35E+00
   1    3    4     1     4    1.634E+01   2.331E+00  1.400E+01  0.00E+00  0.00E+00  0.00E+00  1.08E+03  1.02E+00  1.05E+01  5.80E-01  1.34E+00
   1    4    5     2     1    4.004E+00   2.654E+00  1.350E+00  0.00E+00  0.00E+00  0.00E+00  1.07E+03  4.02E-01  1.20E+01  7.80E-01  1.13E+00
   1    5    6     2     2    1.350E+00   1.350E+00  0.000E+00  0.00E+00  0.00E+00  0.00E+00  1.07E+03  2.10E-01  1.20E+01  6.00E-01  1.07E+00
   1    6    6     2     3    0.000E+00   0.000E+00  0.000E+00  0.00E+00  0.00E+00  0.00E+00  1.06E+03  0.00E+00  1.20E+01  6.00E-01  1.00E+00
   1    7    6     2     4    0.000E+00   0.000E+00  0.000E+00  0.00E+00  0.00E+00  0.00E+00  1.06E+03  0.00E+00  1.20E+01  6.00E-01  1.00E+00
   1    8    6     2     5    0.000E+00   0.000E+00  0.000E+00  0.00E+00  0.00E+00  0.00E+00  1.05E+03  0.00E+00  1.20E+01  6.00E-01  1.00E+00
   1    3    5     3     1    1.000E+01   2.825E+00  7.175E+00  0.00E+00  0.00E+00  0.00E+00  1.08E+03  1.91E+00  9.64E+00  7.23E-01  1.95E+00
   1    3    6     3     2    7.175E+00   2.491E+00  4.684E+00  0.00E+00  0.00E+00  0.00E+00  1.07E+03  1.73E+00  8.91E+00  6.68E-01  1.86E+00
   1    3    7     3     3    4.684E+00   1.972E+00  2.712E+00  0.00E+00  0.00E+00  0.00E+00  1.07E+03  1.55E+00  8.22E+00  5.55E-01  1.78E+00
   1    4    8     3     4    2.712E+00   2.257E+00  4.558E-01  0.00E+00  0.00E+00  0.00E+00  1.07E+03  1.36E+00  7.45E+00  6.71E-01  1.68E+00
   1    5    8     3     5    4.558E-01   4.558E-01  0.000E+00  0.00E+00  0.00E+00  0.00E+00  1.06E+03  1.16E+00  6.65E+00  4.99E-01  1.58E+00
   1    6    8     3     6    0.000E+00   0.000E+00  0.000E+00  0.00E+00  0.00E+00  0.00E+00  1.06E+03  0.00E+00  6.15E+00  1.84E-01  1.00E+00
   1    5   10     4     1    1.000E+01   9.096E-01  9.090E+00  0.00E+00  0.00E+00  0.00E+00  1.08E+03  6.39E-01  1.00E+01  2.50E-01  1.21E+00
   1    5    9     4     2    9.090E+00   1.802E+00  7.289E+00  0.00E+00  0.00E+00  0.00E+00  1.07E+03  6.03E-01  1.00E+01  5.00E-01  1.20E+00
   1    6    8     4     3    7.289E+00   1.235E+00  6.054E+00  0.00E+00  0.00E+00  0.00E+00  1.06E+03  5.28E-01  1.00E+01  3.50E-01  1.18E+00
   1    6    8     5     1    6.054E+00   1.466E+00  4.588E+00  0.00E+00  0.00E+00  0.00E+00  1.06E+03  5.39E-01  1.04E+01  4.14E-01  1.18E+00
   1    7    7     5     2    4.588E+00   1.484E+00  3.104E+00  0.00E+00  0.00E+00  0.00E+00  1.05E+03  4.81E-01  8.53E+00  4.26E-01  1.16E+00
   1    8    7     5     3    3.104E+00   8.249E-01  2.279E+00  0.00E+00  0.00E+00  0.00E+00  1.05E+03  4.24E-01  6.88E+00  2.41E-01  1.14E+00
   1    8    6     5     4    2.279E+00   4.921E-01  1.787E+00  0.00E+00  0.00E+00  0.00E+00  1.05E+03  3.85E-01  5.82E+00  1.45E-01  1.13E+00
   1    9    6     6     1    1.787E+00   1.787E+00  0.000E+00  0.00E+00  0.00E+00  0.00E+00  1.04E+03  2.51E-01  1.20E+01  6.00E-01  1.08E+00
   1   10    7     6     2    0.000E+00   0.000E+00  0.000E+00  0.00E+00  0.00E+00  0.00E+00  1.04E+03  0.00E+00  1.20E+01  6.00E-01  1.00E+00
   1   11    7     6     3    0.000E+00   0.000E+00  0.000E+00  0.00E+00  0.00E+00  0.00E+00  1.03E+03  0.00E+00  1.20E+01  6.00E-01  1.00E+00
   1   12    7     6     4    0.000E+00   0.000E+00  0.000E+00  0.00E+00  0.00E+00  0.00E+00  1.03E+03  0.00E+00  1.20E+01  6.00E-01  1.00E+00
   1   13    7     6     5    0.000E+00  -4.083E-01  4.083E-01  0.00E+00  0.00E+00  0.00E+00  1.03E+03  6.82E-02  1.20E+01  2.40E-01 -5.67E-01
   1   14    9     7     1    1.500E+02   3.247E+00  1.468E+02  0.00E+00  0.00E+00  0.00E+00  1.04E+03  2.28E+00  5.53E+01  5.59E+00  1.94E-01
   1   13    8     7     2    1.468E+02   6.051E+00  1.407E+02  0.00E+00  0.00E+00  0.00E+00  1.03E+03  2.26E+00  5.52E+01  6.14E+00  3.29E-01
   1   13    7     7     3    1.407E+02   1.085E+01  1.299E+02  0.00E+00  0.00E+00  0.00E+00  1.03E+03  2.21E+00  5.50E+01  5.56E+00  6.51E-01
   1   13    6     8     1    1.303E+02   1.067E+01  1.196E+02  0.00E+00  0.00E+00  0.00E+00  1.02E+03  2.63E+00  3.81E+01  3.89E+00  9.16E-01
   1   13    5     8     2    1.196E+02   9.469E+00  1.101E+02  0.00E+00  0.00E+00  0.00E+00  1.02E+03  2.55E+00  3.70E+01  3.77E+00  8.38E-01
   1   13    4     8     3    1.101E+02   6.451E+00  1.037E+02  0.00E+00  0.00E+00  0.00E+00  1.01E+03  2.48E+00  3.60E+01  3.67E+00  5.87E-01
   1   13    3     8     4    1.037E+02   2.831E+00  1.008E+02  0.00E+00  0.00E+00  0.00E+00  1.01E+03  2.44E+00  3.54E+01  3.61E+00  2.62E-01
   1   13    2     8     5    1.008E+02   3.938E-01  1.004E+02  0.00E+00  0.00E+00  0.00E+00  9.99E+02  2.43E+00  3.52E+01  3.58E+00  3.66E-02
   1   13    1     8     6    1.004E+02   6.562E-01  9.979E+01  0.00E+00  0.00E+00  0.00E+00  9.94E+02  2.42E+00  3.51E+01  2.15E+00  1.02E-01



1
              HEAD IN LAYER   1 AT END OF TIME STEP  35 IN STRESS PERIOD    1
  ---------------------------------------------------------------------------

           1       2       3       4       5       6       7       8       9      10
 ...................................................................................
   1  1086.13 1072.96 6999.00 6999.00 6999.00 6999.00 6999.00 6999.00 6999.00 6999.00
   2  1074.75 1060.85 1045.22 6999.00 6999.00 1036.42 1039.41 1041.11 6999.00 6999.00
   3  6999.00 1041.97 1032.53 1023.48 1023.52 1027.32 1033.38 1034.28 6999.00 6999.00
   4  1025.52 1024.30 1018.46 1010.30 1008.15 1008.13 1014.81 1026.21 1024.91 6999.00
   5  1017.40 1010.22 1002.70  996.74  997.17 1000.89 1004.36 1010.28 1018.61 1025.30
   6  1008.10  998.77  988.90  980.57  983.41  992.39  999.12 1005.48 1013.77 1024.12
   7  1001.84  990.16  979.52  970.86  975.20  986.19  994.47 1000.25 1008.98 6999.00
   8  6999.00  983.29  974.46  966.22  971.59  983.01  990.11  997.61 1006.91 6999.00
   9  6999.00  982.14  975.07  967.86  973.30  984.13  989.93  997.34 1007.01 6999.00
  10  6999.00  986.29  981.54  975.89  980.09  988.92  994.14 1001.26 1010.53 1018.12
  11  6999.00  993.47  993.03  990.77  993.33  998.17 1002.29 1008.77 1015.56 6999.00
  12   996.39  998.68 1001.49 1001.68 1004.81 1009.20 1013.43 1021.12 1026.16 6999.00
  13   993.99  999.19 1004.78 1010.10 1015.66 1021.76 1027.68 1033.77 1035.24 6999.00
  14  6999.00 1002.83 1007.07 1011.31 1016.36 1021.91 1028.19 1034.71 1039.28 6999.00
  15  6999.00 6999.00 1010.16 1013.11 1017.05 1020.45 6999.00 6999.00 6999.00 6999.00
1
  VOLUMETRIC BUDGET FOR ENTIRE MODEL AT END OF TIME STEP 35 IN STRESS PERIOD   1
  ------------------------------------------------------------------------------

     CUMULATIVE VOLUMES      L**3       RATES FOR THIS TIME STEP      L**3/T
     ------------------                 ------------------------

           IN:                                      IN:
           ---                                      ---
             STORAGE = 16801016800.0000               STORAGE =          28.4311
       CONSTANT HEAD =           0.0000         CONSTANT HEAD =           0.0000
               WELLS =           0.0000                 WELLS =           0.0000
                  ET =           0.0000                    ET =           0.0000
     HEAD DEP BOUNDS =    79499064.0000       HEAD DEP BOUNDS =           0.2173
            RECHARGE =   659060288.0000              RECHARGE =           1.7937
      STREAM LEAKAGE = 26134210600.0000        STREAM LEAKAGE =          85.6194

            TOTAL IN = 43673788400.0000              TOTAL IN =         116.0615

          OUT:                                     OUT:
          ----                                     ----
             STORAGE =     1790008.6200               STORAGE =           0.0000
       CONSTANT HEAD =           0.0000         CONSTANT HEAD =           0.0000
               WELLS = 36742037500.0000                 WELLS =         100.0000
                  ET =  6351675390.0000                    ET =          15.4282
     HEAD DEP BOUNDS =    86261872.0000       HEAD DEP BOUNDS =           0.2276
            RECHARGE =           0.0000              RECHARGE =           0.0000
      STREAM LEAKAGE =   493231808.0000        STREAM LEAKAGE =           0.4083

           TOTAL OUT = 43674996700.0000             TOTAL OUT =         116.0641

            IN - OUT =    -1209840.6200              IN - OUT =      -2.6615E-03

 PERCENT DISCREPANCY =           0.00     PERCENT DISCREPANCY =           0.00






          TIME SUMMARY AT END OF TIME STEP  35 IN STRESS PERIOD    1
                    SECONDS     MINUTES      HOURS       DAYS        YEARS
                    -----------------------------------------------------------
   TIME STEP LENGTH 3.46343E+07 5.77238E+05  9620.6      400.86      1.0975    
 STRESS PERIOD TIME 3.67420E+08 6.12367E+06 1.02061E+05  4252.6      11.643    
         TOTAL TIME 3.67420E+08 6.12367E+06 1.02061E+05  4252.6      11.643    
1
 
 SOLVING FOR HEAD 
    11 ITERATIONS FOR TIME STEP  36 IN STRESS PERIOD    1

 MAXIMUM HEAD CHANGE FOR EACH ITERATION:

    HEAD CHANGE   HEAD CHANGE   HEAD CHANGE   HEAD CHANGE   HEAD CHANGE
  LAYER,ROW,COL LAYER,ROW,COL LAYER,ROW,COL LAYER,ROW,COL LAYER,ROW,COL
 ----------------------------------------------------------------------
     -2.731        -1.203        -1.031       -0.4806       -0.1757    
  (  1,  7,  1) (  1,  6,  8) (  1,  5,  5) (  1,  6,  5) (  1,  2,  3)
    -0.2934E-01   -0.1775E-01   -0.1332E-01   -0.6649E-02   -0.2090E-02
  (  1,  6,  9) (  1,  3,  4) (  1,  7,  5) (  1,  6,  5) (  1,  7,  5)
    -0.6389E-03
  (  1,  2,  3)


 NO OUTPUT CONTROL FOR STRESS PERIOD    1   TIME STEP  36
 
 SOLVING FOR HEAD 
    11 ITERATIONS FOR TIME STEP  37 IN STRESS PERIOD    1

 MAXIMUM HEAD CHANGE FOR EACH ITERATION:

    HEAD CHANGE   HEAD CHANGE   HEAD CHANGE   HEAD CHANGE   HEAD CHANGE
  LAYER,ROW,COL LAYER,ROW,COL LAYER,ROW,COL LAYER,ROW,COL LAYER,ROW,COL
 ----------------------------------------------------------------------
     -2.733        -1.195        -1.072       -0.5166       -0.1996    
  (  1,  7,  1) (  1,  6,  8) (  1,  5,  5) (  1,  6,  5) (  1,  2,  3)
    -0.3480E-01   -0.2013E-01   -0.1551E-01   -0.8108E-02   -0.2607E-02
  (  1,  6,  9) (  1,  3,  4) (  1,  7,  5) (  1,  6,  5) (  1,  7,  5)
    -0.8028E-03
  (  1,  2,  3)


 NO OUTPUT CONTROL FOR STRESS PERIOD    1   TIME STEP  37
 
 SOLVING FOR HEAD 
    12 ITERATIONS FOR TIME STEP  38 IN STRESS PERIOD    1

 MAXIMUM HEAD CHANGE FOR EACH ITERATION:

    HEAD CHANGE   HEAD CHANGE   HEAD CHANGE   HEAD CHANGE   HEAD CHANGE
  LAYER,ROW,COL LAYER,ROW,COL LAYER,ROW,COL LAYER,ROW,COL LAYER,ROW,COL
 ----------------------------------------------------------------------
     -2.721        -1.177        -1.106       -0.5508       -0.2245    
  (  1,  7,  1) (  1,  6,  8) (  1,  5,  5) (  1,  6,  5) (  1,  2,  3)
    -0.4102E-01   -0.2262E-01   -0.1789E-01   -0.9800E-02   -0.3246E-02
  (  1,  6,  9) (  1,  3,  4) (  1,  7,  5) (  1,  6,  5) (  1,  7,  4)
    -0.1001E-02   -0.3712E-03
  (  1,  2,  3) (  1,  4,  3)


 NO OUTPUT CONTROL FOR STRESS PERIOD    1   TIME STEP  38
 
 SOLVING FOR HEAD 
    12 ITERATIONS FOR TIME STEP  39 IN STRESS PERIOD    1

 MAXIMUM HEAD CHANGE FOR EACH ITERATION:

    HEAD CHANGE   HEAD CHANGE   HEAD CHANGE   HEAD CHANGE   HEAD CHANGE
  LAYER,ROW,COL LAYER,ROW,COL LAYER,ROW,COL LAYER,ROW,COL LAYER,ROW,COL
 ----------------------------------------------------------------------
     -2.698        -1.151        -1.131       -0.5821       -0.2497    
  (  1,  4,  1) (  1,  6,  8) (  1,  5,  5) (  1,  6,  5) (  1,  2,  3)
    -0.4803E-01   -0.2515E-01   -0.2046E-01   -0.1174E-01   -0.4013E-02
  (  1,  6,  9) (  1,  3,  4) (  1,  7,  5) (  1,  6,  5) (  1,  7,  4)
    -0.1237E-02   -0.4601E-03
  (  1,  2,  3) (  1,  4,  3)


 NO OUTPUT CONTROL FOR STRESS PERIOD    1   TIME STEP  39
 
 SOLVING FOR HEAD 
    12 ITERATIONS FOR TIME STEP  40 IN STRESS PERIOD    1

 MAXIMUM HEAD CHANGE FOR EACH ITERATION:

    HEAD CHANGE   HEAD CHANGE   HEAD CHANGE   HEAD CHANGE   HEAD CHANGE
  LAYER,ROW,COL LAYER,ROW,COL LAYER,ROW,COL LAYER,ROW,COL LAYER,ROW,COL
 ----------------------------------------------------------------------
     -2.669        -1.127        -1.150       -0.6094       -0.2745    
  (  1,  4,  1) (  1,  6,  9) (  1,  3,  4) (  1,  6,  5) (  1,  2,  3)
    -0.5582E-01   -0.2766E-01   -0.2317E-01   -0.1392E-01   -0.4913E-02
  (  1,  6,  9) (  1,  3,  4) (  1,  7,  5) (  1,  6,  5) (  1,  7,  4)
    -0.1513E-02   -0.5637E-03
  (  1,  2,  3) (  1,  4,  3)


 OUTPUT CONTROL FOR STRESS PERIOD    1   TIME STEP  40
    PRINT BUDGET
    PRINT HEAD FOR ALL LAYERS
    SAVE BUDGET

            WELLS   PERIOD    1   STEP  40
 WELL      1   LAYER   1   ROW     6   COL     4   RATE    -10.0000    
 WELL      2   LAYER   1   ROW     6   COL     5   RATE    -10.0000    
 WELL      3   LAYER   1   ROW     7   COL     4   RATE    -10.0000    
 WELL      4   LAYER   1   ROW     7   COL     5   RATE    -10.0000    
 WELL      5   LAYER   1   ROW     8   COL     4   RATE    -10.0000    
 WELL      6   LAYER   1   ROW     8   COL     5   RATE    -10.0000    
 WELL      7   LAYER   1   ROW     9   COL     4   RATE    -10.0000    
 WELL      8   LAYER   1   ROW     9   COL     5   RATE    -10.0000    
 WELL      9   LAYER   1   ROW    10   COL     4   RATE    -10.0000    
 WELL     10   LAYER   1   ROW    10   COL     5   RATE    -10.0000    
 UBUDSV SAVING "              ET" ON UNIT 59 AT TIME STEP 40, STRESS PERIOD    1

  HEAD DEP BOUNDS   PERIOD    1   STEP  40
 BOUNDARY      1   LAYER   1   ROW    13   COL     1   RATE   -0.222861    
 BOUNDARY      2   LAYER   1   ROW    14   COL     9   RATE    0.217886    



   STREAM LEAKAGE   PERIOD    1   STEP  40

 LAYER ROW COL. STREAM  RCH.  FLOW INTO    FLOW TO  FLOW OUT OF  OVRLND.   DIRECT    STREAM    STREAM    STREAM    STREAM  STREAMBED  STREAMBED
                SEG.NO.  NO.  STRM. RCH.   AQUIFER   STRM. RCH.  RUNOFF    PRECIP      ET       HEAD      DEPTH     WIDTH  CONDCTNC.   GRADIENT

   1    1    1     1     1    2.500E+01   2.401E+00  2.260E+01  0.00E+00  0.00E+00  0.00E+00  1.09E+03  1.16E+00  1.28E+01  5.77E-01  1.39E+00
   1    2    2     1     2    2.260E+01   3.511E+00  1.909E+01  0.00E+00  0.00E+00  0.00E+00  1.09E+03  1.11E+00  1.22E+01  8.53E-01  1.37E+00
   1    3    3     1     3    1.909E+01   2.753E+00  1.634E+01  0.00E+00  0.00E+00  0.00E+00  1.08E+03  1.06E+00  1.13E+01  6.78E-01  1.35E+00
   1    3    4     1     4    1.634E+01   2.331E+00  1.400E+01  0.00E+00  0.00E+00  0.00E+00  1.08E+03  1.02E+00  1.05E+01  5.80E-01  1.34E+00
   1    4    5     2     1    4.004E+00   2.654E+00  1.350E+00  0.00E+00  0.00E+00  0.00E+00  1.07E+03  4.02E-01  1.20E+01  7.80E-01  1.13E+00
   1    5    6     2     2    1.350E+00   1.350E+00  0.000E+00  0.00E+00  0.00E+00  0.00E+00  1.07E+03  2.10E-01  1.20E+01  6.00E-01  1.07E+00
   1    6    6     2     3    0.000E+00   0.000E+00  0.000E+00  0.00E+00  0.00E+00  0.00E+00  1.06E+03  0.00E+00  1.20E+01  6.00E-01  1.00E+00
   1    7    6     2     4    0.000E+00   0.000E+00  0.000E+00  0.00E+00  0.00E+00  0.00E+00  1.06E+03  0.00E+00  1.20E+01  6.00E-01  1.00E+00
   1    8    6     2     5    0.000E+00   0.000E+00  0.000E+00  0.00E+00  0.00E+00  0.00E+00  1.05E+03  0.00E+00  1.20E+01  6.00E-01  1.00E+00
   1    3    5     3     1    1.000E+01   2.825E+00  7.175E+00  0.00E+00  0.00E+00  0.00E+00  1.08E+03  1.91E+00  9.64E+00  7.23E-01  1.95E+00
   1    3    6     3     2    7.175E+00   2.491E+00  4.684E+00  0.00E+00  0.00E+00  0.00E+00  1.07E+03  1.73E+00  8.91E+00  6.68E-01  1.86E+00
   1    3    7     3     3    4.684E+00   1.972E+00  2.712E+00  0.00E+00  0.00E+00  0.00E+00  1.07E+03  1.55E+00  8.22E+00  5.55E-01  1.78E+00
   1    4    8     3     4    2.712E+00   2.257E+00  4.558E-01  0.00E+00  0.00E+00  0.00E+00  1.07E+03  1.36E+00  7.45E+00  6.71E-01  1.68E+00
   1    5    8     3     5    4.558E-01   4.558E-01  0.000E+00  0.00E+00  0.00E+00  0.00E+00  1.06E+03  1.16E+00  6.65E+00  4.99E-01  1.58E+00
   1    6    8     3     6    0.000E+00   0.000E+00  0.000E+00  0.00E+00  0.00E+00  0.00E+00  1.06E+03  0.00E+00  6.15E+00  1.84E-01  1.00E+00
   1    5   10     4     1    1.000E+01   9.096E-01  9.090E+00  0.00E+00  0.00E+00  0.00E+00  1.08E+03  6.39E-01  1.00E+01  2.50E-01  1.21E+00
   1    5    9     4     2    9.090E+00   1.802E+00  7.289E+00  0.00E+00  0.00E+00  0.00E+00  1.07E+03  6.03E-01  1.00E+01  5.00E-01  1.20E+00
   1    6    8     4     3    7.289E+00   1.235E+00  6.054E+00  0.00E+00  0.00E+00  0.00E+00  1.06E+03  5.28E-01  1.00E+01  3.50E-01  1.18E+00
   1    6    8     5     1    6.054E+00   1.466E+00  4.588E+00  0.00E+00  0.00E+00  0.00E+00  1.06E+03  5.39E-01  1.04E+01  4.14E-01  1.18E+00
   1    7    7     5     2    4.588E+00   1.484E+00  3.104E+00  0.00E+00  0.00E+00  0.00E+00  1.05E+03  4.81E-01  8.53E+00  4.26E-01  1.16E+00
   1    8    7     5     3    3.104E+00   8.249E-01  2.279E+00  0.00E+00  0.00E+00  0.00E+00  1.05E+03  4.24E-01  6.88E+00  2.41E-01  1.14E+00
   1    8    6     5     4    2.279E+00   4.921E-01  1.787E+00  0.00E+00  0.00E+00  0.00E+00  1.05E+03  3.85E-01  5.82E+00  1.45E-01  1.13E+00
   1    9    6     6     1    1.787E+00   1.787E+00  0.000E+00  0.00E+00  0.00E+00  0.00E+00  1.04E+03  2.51E-01  1.20E+01  6.00E-01  1.08E+00
   1   10    7     6     2    0.000E+00   0.000E+00  0.000E+00  0.00E+00  0.00E+00  0.00E+00  1.04E+03  0.00E+00  1.20E+01  6.00E-01  1.00E+00
   1   11    7     6     3    0.000E+00   0.000E+00  0.000E+00  0.00E+00  0.00E+00  0.00E+00  1.03E+03  0.00E+00  1.20E+01  6.00E-01  1.00E+00
   1   12    7     6     4    0.000E+00   0.000E+00  0.000E+00  0.00E+00  0.00E+00  0.00E+00  1.03E+03  0.00E+00  1.20E+01  6.00E-01  1.00E+00
   1   13    7     6     5    0.000E+00  -3.339E-01  3.339E-01  0.00E+00  0.00E+00  0.00E+00  1.03E+03  6.05E-02  1.20E+01  2.40E-01 -4.64E-01
   1   14    9     7     1    1.500E+02   3.337E+00  1.467E+02  0.00E+00  0.00E+00  0.00E+00  1.04E+03  2.28E+00  5.53E+01  5.59E+00  1.99E-01
   1   13    8     7     2    1.467E+02   6.598E+00  1.401E+02  0.00E+00  0.00E+00  0.00E+00  1.03E+03  2.26E+00  5.52E+01  6.14E+00  3.58E-01
   1   13    7     7     3    1.401E+02   1.256E+01  1.275E+02  0.00E+00  0.00E+00  0.00E+00  1.03E+03  2.20E+00  5.49E+01  5.55E+00  7.54E-01
   1   13    6     8     1    1.278E+02   1.257E+01  1.153E+02  0.00E+00  0.00E+00  0.00E+00  1.02E+03  2.60E+00  3.77E+01  3.85E+00  1.09E+00
   1   13    5     8     2    1.153E+02   1.151E+01  1.038E+02  0.00E+00  0.00E+00  0.00E+00  1.02E+03  2.50E+00  3.63E+01  3.70E+00  1.04E+00
   1   13    4     8     3    1.038E+02   8.146E+00  9.562E+01  0.00E+00  0.00E+00  0.00E+00  1.01E+03  2.42E+00  3.50E+01  3.57E+00  7.60E-01
   1   13    3     8     4    9.562E+01   3.907E+00  9.171E+01  0.00E+00  0.00E+00  0.00E+00  1.01E+03  2.36E+00  3.42E+01  3.49E+00  3.73E-01
   1   13    2     8     5    9.171E+01   6.898E-01  9.102E+01  0.00E+00  0.00E+00  0.00E+00  9.99E+02  2.34E+00  3.39E+01  3.46E+00  6.65E-02
   1   13    1     8     6    9.102E+01   7.083E-01  9.031E+01  0.00E+00  0.00E+00  0.00E+00  9.94E+02  2.33E+00  3.38E+01  2.07E+00  1.14E-01



1
              HEAD IN LAYER   1 AT END OF TIME STEP  40 IN STRESS PERIOD    1
  ---------------------------------------------------------------------------

           1       2       3       4       5       6       7       8       9      10
 ...................................................................................
   1  1074.26 1058.44 6999.00 6999.00 6999.00 6999.00 6999.00 6999.00 6999.00 6999.00
   2  1060.58 1044.15 1026.97 6999.00 6999.00 1016.92 1019.83 1021.31 6999.00 6999.00
   3  6999.00 1023.50 1013.46 1004.40 1004.66 1008.40 1014.30 1014.75 6999.00 6999.00
   4  1005.22 1004.49  999.05  991.16  989.16  989.14  995.80 1007.71 1005.84 6999.00
   5   996.80  989.86  983.18  977.73  978.37  982.24  985.74  991.52  999.64 1006.91
   6   987.31  978.53  969.71  961.92  965.05  974.36  981.10  987.27  994.81 1005.21
   7   981.26  970.81  961.39  953.31  958.03  969.37  977.55  982.63  991.15 6999.00
   8  6999.00  966.43  958.38  950.58  956.38  968.14  975.20  981.65  990.77 6999.00
   9  6999.00  968.54  961.92  954.96  960.68  971.76  977.60  984.45  993.92 6999.00
  10  6999.00  976.41  971.84  966.11  970.31  979.26  984.57  991.58 1000.65 1007.30
  11  6999.00  987.60  987.27  984.26  986.63  991.45  995.65 1002.32 1009.18 6999.00
  12   995.33  996.53  998.97  998.29 1001.18 1005.55 1009.94 1018.31 1023.57 6999.00
  13   993.86  999.01 1004.37 1009.51 1015.02 1021.21 1027.36 1033.68 1034.96 6999.00
  14  6999.00 1002.48 1006.57 1010.70 1015.73 1021.38 1027.86 1034.59 1039.27 6999.00
  15  6999.00 6999.00 1009.51 1012.41 1016.35 1019.79 6999.00 6999.00 6999.00 6999.00
1
  VOLUMETRIC BUDGET FOR ENTIRE MODEL AT END OF TIME STEP 40 IN STRESS PERIOD   1
  ------------------------------------------------------------------------------

     CUMULATIVE VOLUMES      L**3       RATES FOR THIS TIME STEP      L**3/T
     ------------------                 ------------------------

           IN:                                      IN:
           ---                                      ---
             STORAGE = 21919926300.0000               STORAGE =          18.4501
       CONSTANT HEAD =           0.0000         CONSTANT HEAD =           0.0000
               WELLS =           0.0000                 WELLS =           0.0000
                  ET =           0.0000                    ET =           0.0000
     HEAD DEP BOUNDS =   130124992.0000       HEAD DEP BOUNDS =           0.2179
            RECHARGE =  1076269310.0000              RECHARGE =           1.7937
      STREAM LEAKAGE = 47455273000.0000        STREAM LEAKAGE =          95.0192

            TOTAL IN = 70581592100.0000              TOTAL IN =         115.4810

          OUT:                                     OUT:
          ----                                     ----
             STORAGE =     1790008.6200               STORAGE =           0.0000
       CONSTANT HEAD =           0.0000         CONSTANT HEAD =           0.0000
               WELLS = 60001075200.0000                 WELLS =         100.0000
                  ET =  9865212930.0000                    ET =          14.9294
     HEAD DEP BOUNDS =   138495024.0000       HEAD DEP BOUNDS =           0.2229
            RECHARGE =           0.0000              RECHARGE =           0.0000
      STREAM LEAKAGE =   577078016.0000        STREAM LEAKAGE =           0.3339

           TOTAL OUT = 70583648300.0000             TOTAL OUT =         115.4862

            IN - OUT =    -2057640.6200              IN - OUT =      -5.1937E-03

 PERCENT DISCREPANCY =           0.00     PERCENT DISCREPANCY =           0.00






          TIME SUMMARY AT END OF TIME STEP  40 IN STRESS PERIOD    1
                    SECONDS     MINUTES      HOURS       DAYS        YEARS
                    -----------------------------------------------------------
   TIME STEP LENGTH 5.57789E+07 9.29648E+05  15494.      645.59      1.7675    
 STRESS PERIOD TIME 6.00011E+08 1.00002E+07 1.66670E+05  6944.6      19.013    
         TOTAL TIME 6.00011E+08 1.00002E+07 1.66670E+05  6944.6      19.013    
1
 
 SOLVING FOR HEAD 
    12 ITERATIONS FOR TIME STEP  41 IN STRESS PERIOD    1

 MAXIMUM HEAD CHANGE FOR EACH ITERATION:

    HEAD CHANGE   HEAD CHANGE   HEAD CHANGE   HEAD CHANGE   HEAD CHANGE
  LAYER,ROW,COL LAYER,ROW,COL LAYER,ROW,COL LAYER,ROW,COL LAYER,ROW,COL
 ----------------------------------------------------------------------
     -2.620        -1.112        -1.168       -0.6314       -0.2984    
  (  1,  4,  1) (  1,  4,  2) (  1,  3,  4) (  1,  6,  5) (  1,  2,  3)
    -0.6435E-01   -0.3007E-01   -0.2597E-01   -0.1633E-01   -0.5945E-02
  (  1,  6,  9) (  1,  3,  4) (  1,  7,  5) (  1,  6,  5) (  1,  7,  4)
    -0.1834E-02   -0.6812E-03
  (  1,  2,  3) (  1,  4,  3)


 NO OUTPUT CONTROL FOR STRESS PERIOD    1   TIME STEP  41
 
 SOLVING FOR HEAD 
    12 ITERATIONS FOR TIME STEP  42 IN STRESS PERIOD    1

 MAXIMUM HEAD CHANGE FOR EACH ITERATION:

    HEAD CHANGE   HEAD CHANGE   HEAD CHANGE   HEAD CHANGE   HEAD CHANGE
  LAYER,ROW,COL LAYER,ROW,COL LAYER,ROW,COL LAYER,ROW,COL LAYER,ROW,COL
 ----------------------------------------------------------------------
     -2.551        -1.089        -1.173       -0.6469       -0.3203    
  (  1,  4,  1) (  1,  4,  2) (  1,  3,  4) (  1,  6,  5) (  1,  2,  3)
    -0.7351E-01   -0.3228E-01   -0.2884E-01   -0.1892E-01   -0.7120E-02
  (  1,  6,  9) (  1,  3,  4) (  1,  6,  5) (  1,  6,  5) (  1,  7,  4)
    -0.2201E-02   -0.8234E-03
  (  1,  2,  3) (  1,  7,  5)


 NO OUTPUT CONTROL FOR STRESS PERIOD    1   TIME STEP  42
 
 SOLVING FOR HEAD 
    14 ITERATIONS FOR TIME STEP  43 IN STRESS PERIOD    1

 MAXIMUM HEAD CHANGE FOR EACH ITERATION:

    HEAD CHANGE   HEAD CHANGE   HEAD CHANGE   HEAD CHANGE   HEAD CHANGE
  LAYER,ROW,COL LAYER,ROW,COL LAYER,ROW,COL LAYER,ROW,COL LAYER,ROW,COL
 ----------------------------------------------------------------------
     -2.460        -1.054        -1.162       -0.6549       -0.3394    
  (  1,  4,  1) (  1,  4,  2) (  1,  3,  4) (  1,  6,  5) (  1,  2,  3)
    -0.8316E-01   -0.3420E-01   -0.3167E-01   -0.2165E-01   -0.8420E-02
  (  1,  6,  9) (  1,  3,  4) (  1,  6,  5) (  1,  6,  5) (  1,  7,  4)
    -0.2611E-02   -0.1009E-02   -0.1211E-02   -0.6835E-03
  (  1,  2,  3) (  1,  6,  9) (  1,  3,  4) (  1,  6,  5)


 NO OUTPUT CONTROL FOR STRESS PERIOD    1   TIME STEP  43
 
 SOLVING FOR HEAD 
    14 ITERATIONS FOR TIME STEP  44 IN STRESS PERIOD    1

 MAXIMUM HEAD CHANGE FOR EACH ITERATION:

    HEAD CHANGE   HEAD CHANGE   HEAD CHANGE   HEAD CHANGE   HEAD CHANGE
  LAYER,ROW,COL LAYER,ROW,COL LAYER,ROW,COL LAYER,ROW,COL LAYER,ROW,COL
 ----------------------------------------------------------------------
     -2.355        -1.006        -1.136       -0.6544       -0.3548    
  (  1,  7,  1) (  1,  4,  2) (  1,  3,  4) (  1,  6,  5) (  1,  2,  3)
    -0.9305E-01   -0.3573E-01   -0.3432E-01   -0.2442E-01   -0.9806E-02
  (  1,  6,  9) (  1,  3,  4) (  1,  6,  5) (  1,  6,  5) (  1,  7,  4)
    -0.3058E-02   -0.1247E-02   -0.1476E-02   -0.8689E-03
  (  1,  2,  3) (  1,  6,  9) (  1,  3,  4) (  1,  6,  5)


 NO OUTPUT CONTROL FOR STRESS PERIOD    1   TIME STEP  44
 
 SOLVING FOR HEAD 
    15 ITERATIONS FOR TIME STEP  45 IN STRESS PERIOD    1

 MAXIMUM HEAD CHANGE FOR EACH ITERATION:

    HEAD CHANGE   HEAD CHANGE   HEAD CHANGE   HEAD CHANGE   HEAD CHANGE
  LAYER,ROW,COL LAYER,ROW,COL LAYER,ROW,COL LAYER,ROW,COL LAYER,ROW,COL
 ----------------------------------------------------------------------
     -2.243       -0.9477        -1.094       -0.6448       -0.3656    
  (  1,  7,  1) (  1,  4,  2) (  1,  3,  4) (  1,  6,  5) (  1,  2,  3)
    -0.1029       -0.3678E-01   -0.3665E-01   -0.2713E-01   -0.1125E-01
  (  1,  6,  9) (  1,  3,  4) (  1,  6,  5) (  1,  6,  5) (  1,  7,  4)
    -0.3534E-02   -0.1518E-02   -0.1772E-02   -0.1086E-02   -0.5947E-03
  (  1,  2,  3) (  1,  6,  9) (  1,  3,  4) (  1,  6,  5) (  1,  2,  3)


 OUTPUT CONTROL FOR STRESS PERIOD    1   TIME STEP  45
    PRINT BUDGET
    PRINT HEAD FOR ALL LAYERS
    SAVE BUDGET

            WELLS   PERIOD    1   STEP  45
 WELL      1   LAYER   1   ROW     6   COL     4   RATE    -10.0000    
 WELL      2   LAYER   1   ROW     6   COL     5   RATE    -10.0000    
 WELL      3   LAYER   1   ROW     7   COL     4   RATE    -10.0000    
 WELL      4   LAYER   1   ROW     7   COL     5   RATE    -10.0000    
 WELL      5   LAYER   1   ROW     8   COL     4   RATE    -10.0000    
 WELL      6   LAYER   1   ROW     8   COL     5   RATE    -10.0000    
 WELL      7   LAYER   1   ROW     9   COL     4   RATE    -10.0000    
 WELL      8   LAYER   1   ROW     9   COL     5   RATE    -10.0000    
 WELL      9   LAYER   1   ROW    10   COL     4   RATE    -10.0000    
 WELL     10   LAYER   1   ROW    10   COL     5   RATE    -10.0000    
 UBUDSV SAVING "              ET" ON UNIT 59 AT TIME STEP 45, STRESS PERIOD    1

  HEAD DEP BOUNDS   PERIOD    1   STEP  45
 BOUNDARY      1   LAYER   1   ROW    13   COL     1   RATE   -0.218509    
 BOUNDARY      2   LAYER   1   ROW    14   COL     9   RATE    0.218478    



   STREAM LEAKAGE   PERIOD    1   STEP  45

 LAYER ROW COL. STREAM  RCH.  FLOW INTO    FLOW TO  FLOW OUT OF  OVRLND.   DIRECT    STREAM    STREAM    STREAM    STREAM  STREAMBED  STREAMBED
                SEG.NO.  NO.  STRM. RCH.   AQUIFER   STRM. RCH.  RUNOFF    PRECIP      ET       HEAD      DEPTH     WIDTH  CONDCTNC.   GRADIENT

   1    1    1     1     1    2.500E+01   2.401E+00  2.260E+01  0.00E+00  0.00E+00  0.00E+00  1.09E+03  1.16E+00  1.28E+01  5.77E-01  1.39E+00
   1    2    2     1     2    2.260E+01   3.511E+00  1.909E+01  0.00E+00  0.00E+00  0.00E+00  1.09E+03  1.11E+00  1.22E+01  8.53E-01  1.37E+00
   1    3    3     1     3    1.909E+01   2.753E+00  1.634E+01  0.00E+00  0.00E+00  0.00E+00  1.08E+03  1.06E+00  1.13E+01  6.78E-01  1.35E+00
   1    3    4     1     4    1.634E+01   2.331E+00  1.400E+01  0.00E+00  0.00E+00  0.00E+00  1.08E+03  1.02E+00  1.05E+01  5.80E-01  1.34E+00
   1    4    5     2     1    4.004E+00   2.654E+00  1.350E+00  0.00E+00  0.00E+00  0.00E+00  1.07E+03  4.02E-01  1.20E+01  7.80E-01  1.13E+00
   1    5    6     2     2    1.350E+00   1.350E+00  0.000E+00  0.00E+00  0.00E+00  0.00E+00  1.07E+03  2.10E-01  1.20E+01  6.00E-01  1.07E+00
   1    6    6     2     3    0.000E+00   0.000E+00  0.000E+00  0.00E+00  0.00E+00  0.00E+00  1.06E+03  0.00E+00  1.20E+01  6.00E-01  1.00E+00
   1    7    6     2     4    0.000E+00   0.000E+00  0.000E+00  0.00E+00  0.00E+00  0.00E+00  1.06E+03  0.00E+00  1.20E+01  6.00E-01  1.00E+00
   1    8    6     2     5    0.000E+00   0.000E+00  0.000E+00  0.00E+00  0.00E+00  0.00E+00  1.05E+03  0.00E+00  1.20E+01  6.00E-01  1.00E+00
   1    3    5     3     1    1.000E+01   2.825E+00  7.175E+00  0.00E+00  0.00E+00  0.00E+00  1.08E+03  1.91E+00  9.64E+00  7.23E-01  1.95E+00
   1    3    6     3     2    7.175E+00   2.491E+00  4.684E+00  0.00E+00  0.00E+00  0.00E+00  1.07E+03  1.73E+00  8.91E+00  6.68E-01  1.86E+00
   1    3    7     3     3    4.684E+00   1.972E+00  2.712E+00  0.00E+00  0.00E+00  0.00E+00  1.07E+03  1.55E+00  8.22E+00  5.55E-01  1.78E+00
   1    4    8     3     4    2.712E+00   2.257E+00  4.558E-01  0.00E+00  0.00E+00  0.00E+00  1.07E+03  1.36E+00  7.45E+00  6.71E-01  1.68E+00
   1    5    8     3     5    4.558E-01   4.558E-01  0.000E+00  0.00E+00  0.00E+00  0.00E+00  1.06E+03  1.16E+00  6.65E+00  4.99E-01  1.58E+00
   1    6    8     3     6    0.000E+00   0.000E+00  0.000E+00  0.00E+00  0.00E+00  0.00E+00  1.06E+03  0.00E+00  6.15E+00  1.84E-01  1.00E+00
   1    5   10     4     1    1.000E+01   9.096E-01  9.090E+00  0.00E+00  0.00E+00  0.00E+00  1.08E+03  6.39E-01  1.00E+01  2.50E-01  1.21E+00
   1    5    9     4     2    9.090E+00   1.802E+00  7.289E+00  0.00E+00  0.00E+00  0.00E+00  1.07E+03  6.03E-01  1.00E+01  5.00E-01  1.20E+00
   1    6    8     4     3    7.289E+00   1.235E+00  6.054E+00  0.00E+00  0.00E+00  0.00E+00  1.06E+03  5.28E-01  1.00E+01  3.50E-01  1.18E+00
   1    6    8     5     1    6.054E+00   1.466E+00  4.588E+00  0.00E+00  0.00E+00  0.00E+00  1.06E+03  5.39E-01  1.04E+01  4.14E-01  1.18E+00
   1    7    7     5     2    4.588E+00   1.484E+00  3.104E+00  0.00E+00  0.00E+00  0.00E+00  1.05E+03  4.81E-01  8.53E+00  4.26E-01  1.16E+00
   1    8    7     5     3    3.104E+00   8.249E-01  2.279E+00  0.00E+00  0.00E+00  0.00E+00  1.05E+03  4.24E-01  6.88E+00  2.41E-01  1.14E+00
   1    8    6     5     4    2.279E+00   4.921E-01  1.787E+00  0.00E+00  0.00E+00  0.00E+00  1.05E+03  3.85E-01  5.82E+00  1.45E-01  1.13E+00
   1    9    6     6     1    1.787E+00   1.787E+00  0.000E+00  0.00E+00  0.00E+00  0.00E+00  1.04E+03  2.51E-01  1.20E+01  6.00E-01  1.08E+00
   1   10    7     6     2    0.000E+00   0.000E+00  0.000E+00  0.00E+00  0.00E+00  0.00E+00  1.04E+03  0.00E+00  1.20E+01  6.00E-01  1.00E+00
   1   11    7     6     3    0.000E+00   0.000E+00  0.000E+00  0.00E+00  0.00E+00  0.00E+00  1.03E+03  0.00E+00  1.20E+01  6.00E-01  1.00E+00
   1   12    7     6     4    0.000E+00   0.000E+00  0.000E+00  0.00E+00  0.00E+00  0.00E+00  1.03E+03  0.00E+00  1.20E+01  6.00E-01  1.00E+00
   1   13    7     6     5    0.000E+00  -2.694E-01  2.694E-01  0.00E+00  0.00E+00  0.00E+00  1.03E+03  5.31E-02  1.20E+01  2.40E-01 -3.74E-01
   1   14    9     7     1    1.500E+02   3.423E+00  1.466E+02  0.00E+00  0.00E+00  0.00E+00  1.04E+03  2.28E+00  5.53E+01  5.59E+00  2.04E-01
   1   13    8     7     2    1.466E+02   7.073E+00  1.395E+02  0.00E+00  0.00E+00  0.00E+00  1.03E+03  2.25E+00  5.51E+01  6.13E+00  3.84E-01
   1   13    7     7     3    1.395E+02   1.404E+01  1.255E+02  0.00E+00  0.00E+00  0.00E+00  1.03E+03  2.20E+00  5.49E+01  5.55E+00  8.44E-01
   1   13    6     8     1    1.257E+02   1.421E+01  1.115E+02  0.00E+00  0.00E+00  0.00E+00  1.02E+03  2.58E+00  3.74E+01  3.81E+00  1.24E+00
   1   13    5     8     2    1.115E+02   1.328E+01  9.824E+01  0.00E+00  0.00E+00  0.00E+00  1.02E+03  2.46E+00  3.57E+01  3.64E+00  1.22E+00
   1   13    4     8     3    9.824E+01   9.604E+00  8.864E+01  0.00E+00  0.00E+00  0.00E+00  1.01E+03  2.36E+00  3.42E+01  3.49E+00  9.18E-01
   1   13    3     8     4    8.864E+01   4.825E+00  8.381E+01  0.00E+00  0.00E+00  0.00E+00  1.01E+03  2.29E+00  3.32E+01  3.38E+00  4.76E-01
   1   13    2     8     5    8.381E+01   9.414E-01  8.287E+01  0.00E+00  0.00E+00  0.00E+00  9.99E+02  2.26E+00  3.28E+01  3.34E+00  9.40E-02
   1   13    1     8     6    8.287E+01   7.503E-01  8.212E+01  0.00E+00  0.00E+00  0.00E+00  9.94E+02  2.25E+00  3.26E+01  2.00E+00  1.25E-01



1
              HEAD IN LAYER   1 AT END OF TIME STEP  45 IN STRESS PERIOD    1
  ---------------------------------------------------------------------------

           1       2       3       4       5       6       7       8       9      10
 ...................................................................................
   1  1062.69 1043.45 6999.00 6999.00 6999.00 6999.00 6999.00 6999.00 6999.00 6999.00
   2  1045.69 1026.83 1008.43 6999.00 6999.00  998.44 1001.27 1002.46 6999.00 6999.00
   3  6999.00 1004.84  994.53  985.82  986.60  990.52  996.37  996.31 6999.00 6999.00
   4   985.38  984.98  980.14  972.78  971.12  971.20  977.96  990.59  988.13 6999.00
   5   976.87  970.10  964.46  959.66  960.58  964.71  968.33  974.05  982.07  990.52
   6   967.29  959.11  951.50  944.29  947.79  957.48  964.30  970.33  977.09  988.20
   7   961.62  952.45  944.36  936.86  942.00  953.74  961.87  966.26  974.70 6999.00
   8  6999.00  950.76  943.49  936.10  942.34  954.46  961.51  966.94  976.16 6999.00
   9  6999.00  956.24  949.97  943.20  949.18  960.51  966.44  972.88  982.50 6999.00
  10  6999.00  967.72  963.18  957.32  961.50  970.58  976.01  983.11  992.34  998.08
  11  6999.00  982.55  982.21  978.47  980.66  985.48  989.78  996.74 1003.85 6999.00
  12   994.42  994.69  996.76  995.30  997.97 1002.34 1006.88 1015.89 1021.40 6999.00
  13   993.75  998.85 1003.99 1008.98 1014.44 1020.73 1027.08 1033.60 1034.69 6999.00
  14  6999.00 1002.17 1006.12 1010.17 1015.18 1020.91 1027.58 1034.49 1039.25 6999.00
  15  6999.00 6999.00 1008.96 1011.82 1015.75 1019.23 6999.00 6999.00 6999.00 6999.00
1
  VOLUMETRIC BUDGET FOR ENTIRE MODEL AT END OF TIME STEP 45 IN STRESS PERIOD   1
  ------------------------------------------------------------------------------

     CUMULATIVE VOLUMES      L**3       RATES FOR THIS TIME STEP      L**3/T
     ------------------                 ------------------------

           IN:                                      IN:
           ---                                      ---
             STORAGE = 26715672600.0000               STORAGE =           9.8430
       CONSTANT HEAD =           0.0000         CONSTANT HEAD =           0.0000
               WELLS =           0.0000                 WELLS =           0.0000
                  ET =           0.0000                    ET =           0.0000
     HEAD DEP BOUNDS =   211888656.0000       HEAD DEP BOUNDS =           0.2185
            RECHARGE =  1748188540.0000              RECHARGE =           1.7937
      STREAM LEAKAGE = 85046116400.0000        STREAM LEAKAGE =         103.1466

            TOTAL IN =113721868000.0000              TOTAL IN =         115.0019

          OUT:                                     OUT:
          ----                                     ----
             STORAGE =     1790008.6200               STORAGE =           0.0000
       CONSTANT HEAD =           0.0000         CONSTANT HEAD =           0.0000
               WELLS = 97459994600.0000                 WELLS =         100.0000
                  ET = 15356065800.0000                    ET =          14.5145
     HEAD DEP BOUNDS =   220912448.0000       HEAD DEP BOUNDS =           0.2185
            RECHARGE =           0.0000              RECHARGE =           0.0000
      STREAM LEAKAGE =   686311104.0000        STREAM LEAKAGE =           0.2694

           TOTAL OUT =113725071000.0000             TOTAL OUT =         115.0024

            IN - OUT =    -3207848.5000              IN - OUT =      -4.9163E-04

 PERCENT DISCREPANCY =           0.00     PERCENT DISCREPANCY =           0.00






          TIME SUMMARY AT END OF TIME STEP  45 IN STRESS PERIOD    1
                    SECONDS     MINUTES      HOURS       DAYS        YEARS
                    -----------------------------------------------------------
   TIME STEP LENGTH 8.98324E+07 1.49721E+06  24953.      1039.7      2.8466    
 STRESS PERIOD TIME 9.74600E+08 1.62433E+07 2.70722E+05  11280.      30.883    
         TOTAL TIME 9.74600E+08 1.62433E+07 2.70722E+05  11280.      30.883    
1
 
 SOLVING FOR HEAD 
    15 ITERATIONS FOR TIME STEP  46 IN STRESS PERIOD    1

 MAXIMUM HEAD CHANGE FOR EACH ITERATION:

    HEAD CHANGE   HEAD CHANGE   HEAD CHANGE   HEAD CHANGE   HEAD CHANGE
  LAYER,ROW,COL LAYER,ROW,COL LAYER,ROW,COL LAYER,ROW,COL LAYER,ROW,COL
 ----------------------------------------------------------------------
     -2.115       -0.8797        -1.037       -0.6264       -0.3710    
  (  1,  7,  1) (  1,  4,  2) (  1,  3,  4) (  1,  6,  4) (  1,  2,  3)
    -0.1121       -0.3725E-01   -0.3853E-01   -0.2966E-01   -0.1289E-01
  (  1,  6,  9) (  1,  3,  4) (  1,  6,  5) (  1,  6,  5) (  1,  6,  9)
    -0.4024E-02   -0.1818E-02   -0.2090E-02   -0.1333E-02   -0.7557E-03
  (  1,  2,  3) (  1,  6,  9) (  1,  3,  4) (  1,  6,  5) (  1,  2,  3)


 NO OUTPUT CONTROL FOR STRESS PERIOD    1   TIME STEP  46
 
 SOLVING FOR HEAD 
    15 ITERATIONS FOR TIME STEP  47 IN STRESS PERIOD    1

 MAXIMUM HEAD CHANGE FOR EACH ITERATION:

    HEAD CHANGE   HEAD CHANGE   HEAD CHANGE   HEAD CHANGE   HEAD CHANGE
  LAYER,ROW,COL LAYER,ROW,COL LAYER,ROW,COL LAYER,ROW,COL LAYER,ROW,COL
 ----------------------------------------------------------------------
     -1.975       -0.8039       -0.9680       -0.5997       -0.3704    
  (  1,  7,  1) (  1,  4,  2) (  1,  3,  4) (  1,  6,  4) (  1,  2,  3)
    -0.1203       -0.3779E-01   -0.3982E-01   -0.3187E-01   -0.1455E-01
  (  1,  6,  9) (  1,  6,  9) (  1,  6,  5) (  1,  5,  5) (  1,  6,  9)
     0.4641E-02   -0.2136E-02   -0.2422E-02   -0.1608E-02   -0.9452E-03
  (  1,  7,  9) (  1,  6,  9) (  1,  3,  4) (  1,  6,  5) (  1,  2,  3)


 NO OUTPUT CONTROL FOR STRESS PERIOD    1   TIME STEP  47
 
 SOLVING FOR HEAD 
    16 ITERATIONS FOR TIME STEP  48 IN STRESS PERIOD    1

 MAXIMUM HEAD CHANGE FOR EACH ITERATION:

    HEAD CHANGE   HEAD CHANGE   HEAD CHANGE   HEAD CHANGE   HEAD CHANGE
  LAYER,ROW,COL LAYER,ROW,COL LAYER,ROW,COL LAYER,ROW,COL LAYER,ROW,COL
 ----------------------------------------------------------------------
     -1.822       -0.7224       -0.8875       -0.5642       -0.3633    
  (  1,  7,  1) (  1,  4,  2) (  1,  3,  4) (  1,  6,  4) (  1,  2,  3)
    -0.1267       -0.3909E-01   -0.4040E-01   -0.3368E-01   -0.1608E-01
  (  1,  6,  9) (  1,  6,  9) (  1,  6,  5) (  1,  5,  5) (  1,  6,  9)
     0.5292E-02   -0.2459E-02   -0.2749E-02   -0.1902E-02   -0.1160E-02
  (  1,  7,  9) (  1,  6,  9) (  1,  3,  4) (  1,  6,  5) (  1,  2,  3)
    -0.4801E-03
  (  1,  6,  9)


 NO OUTPUT CONTROL FOR STRESS PERIOD    1   TIME STEP  48
 
 SOLVING FOR HEAD 
    16 ITERATIONS FOR TIME STEP  49 IN STRESS PERIOD    1

 MAXIMUM HEAD CHANGE FOR EACH ITERATION:

    HEAD CHANGE   HEAD CHANGE   HEAD CHANGE   HEAD CHANGE   HEAD CHANGE
  LAYER,ROW,COL LAYER,ROW,COL LAYER,ROW,COL LAYER,ROW,COL LAYER,ROW,COL
 ----------------------------------------------------------------------
     -1.659       -0.6378       -0.8022       -0.5209       -0.3498    
  (  1,  7,  1) (  1,  4,  2) (  1,  2,  3) (  1,  6,  4) (  1,  2,  3)
    -0.1307       -0.3965E-01   -0.4017E-01   -0.3485E-01   -0.1738E-01
  (  1,  6,  9) (  1,  6,  9) (  1,  6,  5) (  1,  5,  5) (  1,  6,  9)
     0.5919E-02   -0.2760E-02   -0.3048E-02   -0.2182E-02   -0.1391E-02
  (  1,  7,  9) (  1,  6,  9) (  1,  3,  4) (  1,  6,  5) (  1,  2,  3)
    -0.6102E-03
  (  1,  6,  9)


 NO OUTPUT CONTROL FOR STRESS PERIOD    1   TIME STEP  49
 
 SOLVING FOR HEAD 
    16 ITERATIONS FOR TIME STEP  50 IN STRESS PERIOD    1

 MAXIMUM HEAD CHANGE FOR EACH ITERATION:

    HEAD CHANGE   HEAD CHANGE   HEAD CHANGE   HEAD CHANGE   HEAD CHANGE
  LAYER,ROW,COL LAYER,ROW,COL LAYER,ROW,COL LAYER,ROW,COL LAYER,ROW,COL
 ----------------------------------------------------------------------
     -1.489       -0.5524       -0.7114       -0.4713       -0.3300    
  (  1,  7,  1) (  1,  4,  2) (  1,  2,  3) (  1,  6,  4) (  1,  2,  3)
    -0.1315       -0.3934E-01   -0.3910E-01   -0.3525E-01   -0.1833E-01
  (  1,  6,  9) (  1,  6,  9) (  1,  6,  6) (  1,  5,  5) (  1,  6,  9)
     0.6474E-02   -0.3017E-02   -0.3298E-02   -0.2446E-02   -0.1625E-02
  (  1,  7,  9) (  1,  6,  9) (  1,  3,  4) (  1,  6,  5) (  1,  2,  3)
    -0.7504E-03
  (  1,  6,  9)


 OUTPUT CONTROL FOR STRESS PERIOD    1   TIME STEP  50
    PRINT BUDGET
    PRINT HEAD FOR ALL LAYERS
    SAVE HEAD FOR ALL LAYERS
    SAVE BUDGET

            WELLS   PERIOD    1   STEP  50
 WELL      1   LAYER   1   ROW     6   COL     4   RATE    -10.0000    
 WELL      2   LAYER   1   ROW     6   COL     5   RATE    -10.0000    
 WELL      3   LAYER   1   ROW     7   COL     4   RATE    -10.0000    
 WELL      4   LAYER   1   ROW     7   COL     5   RATE    -10.0000    
 WELL      5   LAYER   1   ROW     8   COL     4   RATE    -10.0000    
 WELL      6   LAYER   1   ROW     8   COL     5   RATE    -10.0000    
 WELL      7   LAYER   1   ROW     9   COL     4   RATE    -10.0000    
 WELL      8   LAYER   1   ROW     9   COL     5   RATE    -10.0000    
 WELL      9   LAYER   1   ROW    10   COL     4   RATE    -10.0000    
 WELL     10   LAYER   1   ROW    10   COL     5   RATE    -10.0000    
 UBUDSV SAVING "              ET" ON UNIT 59 AT TIME STEP 50, STRESS PERIOD    1

  HEAD DEP BOUNDS   PERIOD    1   STEP  50
 BOUNDARY      1   LAYER   1   ROW    13   COL     1   RATE   -0.215322    
 BOUNDARY      2   LAYER   1   ROW    14   COL     9   RATE    0.218865    



   STREAM LEAKAGE   PERIOD    1   STEP  50

 LAYER ROW COL. STREAM  RCH.  FLOW INTO    FLOW TO  FLOW OUT OF  OVRLND.   DIRECT    STREAM    STREAM    STREAM    STREAM  STREAMBED  STREAMBED
                SEG.NO.  NO.  STRM. RCH.   AQUIFER   STRM. RCH.  RUNOFF    PRECIP      ET       HEAD      DEPTH     WIDTH  CONDCTNC.   GRADIENT

   1    1    1     1     1    2.500E+01   2.401E+00  2.260E+01  0.00E+00  0.00E+00  0.00E+00  1.09E+03  1.16E+00  1.28E+01  5.77E-01  1.39E+00
   1    2    2     1     2    2.260E+01   3.511E+00  1.909E+01  0.00E+00  0.00E+00  0.00E+00  1.09E+03  1.11E+00  1.22E+01  8.53E-01  1.37E+00
   1    3    3     1     3    1.909E+01   2.753E+00  1.634E+01  0.00E+00  0.00E+00  0.00E+00  1.08E+03  1.06E+00  1.13E+01  6.78E-01  1.35E+00
   1    3    4     1     4    1.634E+01   2.331E+00  1.400E+01  0.00E+00  0.00E+00  0.00E+00  1.08E+03  1.02E+00  1.05E+01  5.80E-01  1.34E+00
   1    4    5     2     1    4.004E+00   2.654E+00  1.350E+00  0.00E+00  0.00E+00  0.00E+00  1.07E+03  4.02E-01  1.20E+01  7.80E-01  1.13E+00
   1    5    6     2     2    1.350E+00   1.350E+00  0.000E+00  0.00E+00  0.00E+00  0.00E+00  1.07E+03  2.10E-01  1.20E+01  6.00E-01  1.07E+00
   1    6    6     2     3    0.000E+00   0.000E+00  0.000E+00  0.00E+00  0.00E+00  0.00E+00  1.06E+03  0.00E+00  1.20E+01  6.00E-01  1.00E+00
   1    7    6     2     4    0.000E+00   0.000E+00  0.000E+00  0.00E+00  0.00E+00  0.00E+00  1.06E+03  0.00E+00  1.20E+01  6.00E-01  1.00E+00
   1    8    6     2     5    0.000E+00   0.000E+00  0.000E+00  0.00E+00  0.00E+00  0.00E+00  1.05E+03  0.00E+00  1.20E+01  6.00E-01  1.00E+00
   1    3    5     3     1    1.000E+01   2.825E+00  7.175E+00  0.00E+00  0.00E+00  0.00E+00  1.08E+03  1.91E+00  9.64E+00  7.23E-01  1.95E+00
   1    3    6     3     2    7.175E+00   2.491E+00  4.684E+00  0.00E+00  0.00E+00  0.00E+00  1.07E+03  1.73E+00  8.91E+00  6.68E-01  1.86E+00
   1    3    7     3     3    4.684E+00   1.972E+00  2.712E+00  0.00E+00  0.00E+00  0.00E+00  1.07E+03  1.55E+00  8.22E+00  5.55E-01  1.78E+00
   1    4    8     3     4    2.712E+00   2.257E+00  4.558E-01  0.00E+00  0.00E+00  0.00E+00  1.07E+03  1.36E+00  7.45E+00  6.71E-01  1.68E+00
   1    5    8     3     5    4.558E-01   4.558E-01  0.000E+00  0.00E+00  0.00E+00  0.00E+00  1.06E+03  1.16E+00  6.65E+00  4.99E-01  1.58E+00
   1    6    8     3     6    0.000E+00   0.000E+00  0.000E+00  0.00E+00  0.00E+00  0.00E+00  1.06E+03  0.00E+00  6.15E+00  1.84E-01  1.00E+00
   1    5   10     4     1    1.000E+01   9.096E-01  9.090E+00  0.00E+00  0.00E+00  0.00E+00  1.08E+03  6.39E-01  1.00E+01  2.50E-01  1.21E+00
   1    5    9     4     2    9.090E+00   1.802E+00  7.289E+00  0.00E+00  0.00E+00  0.00E+00  1.07E+03  6.03E-01  1.00E+01  5.00E-01  1.20E+00
   1    6    8     4     3    7.289E+00   1.235E+00  6.054E+00  0.00E+00  0.00E+00  0.00E+00  1.06E+03  5.28E-01  1.00E+01  3.50E-01  1.18E+00
   1    6    8     5     1    6.054E+00   1.466E+00  4.588E+00  0.00E+00  0.00E+00  0.00E+00  1.06E+03  5.39E-01  1.04E+01  4.14E-01  1.18E+00
   1    7    7     5     2    4.588E+00   1.484E+00  3.104E+00  0.00E+00  0.00E+00  0.00E+00  1.05E+03  4.81E-01  8.53E+00  4.26E-01  1.16E+00
   1    8    7     5     3    3.104E+00   8.249E-01  2.279E+00  0.00E+00  0.00E+00  0.00E+00  1.05E+03  4.24E-01  6.88E+00  2.41E-01  1.14E+00
   1    8    6     5     4    2.279E+00   4.921E-01  1.787E+00  0.00E+00  0.00E+00  0.00E+00  1.05E+03  3.85E-01  5.82E+00  1.45E-01  1.13E+00
   1    9    6     6     1    1.787E+00   1.787E+00  0.000E+00  0.00E+00  0.00E+00  0.00E+00  1.04E+03  2.51E-01  1.20E+01  6.00E-01  1.08E+00
   1   10    7     6     2    0.000E+00   0.000E+00  0.000E+00  0.00E+00  0.00E+00  0.00E+00  1.04E+03  0.00E+00  1.20E+01  6.00E-01  1.00E+00
   1   11    7     6     3    0.000E+00   0.000E+00  0.000E+00  0.00E+00  0.00E+00  0.00E+00  1.03E+03  0.00E+00  1.20E+01  6.00E-01  1.00E+00
   1   12    7     6     4    0.000E+00   0.000E+00  0.000E+00  0.00E+00  0.00E+00  0.00E+00  1.03E+03  0.00E+00  1.20E+01  6.00E-01  1.00E+00
   1   13    7     6     5    0.000E+00  -2.245E-01  2.245E-01  0.00E+00  0.00E+00  0.00E+00  1.03E+03  4.76E-02  1.20E+01  2.40E-01 -3.12E-01
   1   14    9     7     1    1.500E+02   3.479E+00  1.465E+02  0.00E+00  0.00E+00  0.00E+00  1.04E+03  2.28E+00  5.53E+01  5.59E+00  2.07E-01
   1   13    8     7     2    1.465E+02   7.393E+00  1.391E+02  0.00E+00  0.00E+00  0.00E+00  1.03E+03  2.25E+00  5.51E+01  6.13E+00  4.02E-01
   1   13    7     7     3    1.391E+02   1.507E+01  1.241E+02  0.00E+00  0.00E+00  0.00E+00  1.03E+03  2.19E+00  5.49E+01  5.55E+00  9.06E-01
   1   13    6     8     1    1.243E+02   1.535E+01  1.089E+02  0.00E+00  0.00E+00  0.00E+00  1.02E+03  2.56E+00  3.72E+01  3.79E+00  1.35E+00
   1   13    5     8     2    1.089E+02   1.452E+01  9.441E+01  0.00E+00  0.00E+00  0.00E+00  1.02E+03  2.43E+00  3.53E+01  3.60E+00  1.35E+00
   1   13    4     8     3    9.441E+01   1.061E+01  8.379E+01  0.00E+00  0.00E+00  0.00E+00  1.01E+03  2.32E+00  3.36E+01  3.42E+00  1.03E+00
   1   13    3     8     4    8.379E+01   5.456E+00  7.834E+01  0.00E+00  0.00E+00  0.00E+00  1.01E+03  2.24E+00  3.24E+01  3.30E+00  5.50E-01
   1   13    2     8     5    7.834E+01   1.114E+00  7.722E+01  0.00E+00  0.00E+00  0.00E+00  9.99E+02  2.20E+00  3.19E+01  3.25E+00  1.14E-01
   1   13    1     8     6    7.722E+01   7.782E-01  7.645E+01  0.00E+00  0.00E+00  0.00E+00  9.94E+02  2.19E+00  3.18E+01  1.94E+00  1.33E-01



1
              HEAD IN LAYER   1 AT END OF TIME STEP  50 IN STRESS PERIOD    1
  ---------------------------------------------------------------------------

           1       2       3       4       5       6       7       8       9      10
 ...................................................................................
   1  1056.27 1033.46 6999.00 6999.00 6999.00 6999.00 6999.00 6999.00 6999.00 6999.00
   2  1035.61 1014.23  994.69 6999.00 6999.00  984.80  987.56  988.46 6999.00 6999.00
   3  6999.00  990.98  980.40  971.99  973.22  977.34  983.18  982.68 6999.00 6999.00
   4   970.43  970.34  966.03  959.12  957.74  957.93  964.79  978.13  975.05 6999.00
   5   961.86  955.19  950.48  946.24  947.41  951.75  955.48  961.17  969.17  979.37
   6   952.04  944.44  937.93  931.22  935.03  945.03  951.93  957.85  963.90  976.85
   7   946.63  938.64  931.72  924.70  930.20  942.26  950.35  954.21  962.73 6999.00
   8  6999.00  939.15  932.54  925.47  932.07  944.49  951.53  956.15  965.75 6999.00
   9  6999.00  947.36  941.30  934.65  940.84  952.38  958.39  964.60  974.70 6999.00
  10  6999.00  961.58  956.99  951.01  955.18  964.36  969.91  977.19  986.86  991.99
  11  6999.00  979.04  978.63  974.35  976.41  981.24  985.62  992.87 1000.31 6999.00
  12   993.80  993.42  995.21  993.18  995.70 1000.07 1004.73 1014.23 1019.98 6999.00
  13   993.67  998.73 1003.71 1008.59 1014.02 1020.38 1026.89 1033.55 1034.51 6999.00
  14  6999.00 1001.95 1005.80 1009.78 1014.78 1020.58 1027.38 1034.42 1039.24 6999.00
  15  6999.00 6999.00 1008.57 1011.41 1015.34 1018.84 6999.00 6999.00 6999.00 6999.00

 HEAD WILL BE SAVED ON UNIT   58 AT END OF TIME STEP  50, STRESS PERIOD    1
1
  VOLUMETRIC BUDGET FOR ENTIRE MODEL AT END OF TIME STEP 50 IN STRESS PERIOD   1
  ------------------------------------------------------------------------------

     CUMULATIVE VOLUMES      L**3       RATES FOR THIS TIME STEP      L**3/T
     ------------------                 ------------------------

           IN:                                      IN:
           ---                                      ---
             STORAGE = 30209986600.0000               STORAGE =           3.8636
       CONSTANT HEAD =           0.0000         CONSTANT HEAD =           0.0000
               WELLS =           0.0000                 WELLS =           0.0000
                  ET =           0.0000                    ET =           0.0000
     HEAD DEP BOUNDS =   343850880.0000       HEAD DEP BOUNDS =           0.2189
            RECHARGE =  2830321410.0000              RECHARGE =           1.7937
      STREAM LEAKAGE =149574894000.0000        STREAM LEAKAGE =         108.7790

            TOTAL IN =182959047000.0000              TOTAL IN =         114.6552

          OUT:                                     OUT:
          ----                                     ----
             STORAGE =     1790008.6200               STORAGE =           0.0000
       CONSTANT HEAD =           0.0000         CONSTANT HEAD =           0.0000
               WELLS =157787963000.0000                 WELLS =         100.0000
                  ET = 23991078900.0000                    ET =          14.2169
     HEAD DEP BOUNDS =   351436928.0000       HEAD DEP BOUNDS =           0.2153
            RECHARGE =           0.0000              RECHARGE =           0.0000
      STREAM LEAKAGE =   830477312.0000        STREAM LEAKAGE =           0.2245

           TOTAL OUT =182962749000.0000             TOTAL OUT =         114.6567

            IN - OUT =    -3694136.5000              IN - OUT =      -1.4737E-03

 PERCENT DISCREPANCY =           0.00     PERCENT DISCREPANCY =           0.00






          TIME SUMMARY AT END OF TIME STEP  50 IN STRESS PERIOD    1
                    SECONDS     MINUTES      HOURS       DAYS        YEARS
                    -----------------------------------------------------------
   TIME STEP LENGTH 1.44676E+08 2.41127E+06  40188.      1674.5      4.5845    
 STRESS PERIOD TIME 1.57788E+09 2.62980E+07 4.38300E+05  18262.      50.000    
         TOTAL TIME 1.57788E+09 2.62980E+07 4.38300E+05  18262.      50.000    
1
1
                            STRESS PERIOD NO.    2, LENGTH =  0.1577880E+10
                            -----------------------------------------------

                              NUMBER OF TIME STEPS =    50

                               MULTIPLIER FOR DELT =     1.100

                            INITIAL TIME STEP SIZE =   1355672.    

      0 WELLS

 REUSING SURF FROM LAST STRESS PERIOD

 REUSING EVTR FROM LAST STRESS PERIOD

 REUSING EXDP FROM LAST STRESS PERIOD

 REUSING NON-PARAMETER GHB CELLS FROM LAST STRESS PERIOD

      2 GHB CELLS

 REUSING RECH FROM LAST STRESS PERIOD

 REUSING STREAM SEGMENT DATA FROM LAST STRESS PERIOD
 
 SOLVING FOR HEAD 

     6 ITERATIONS FOR TIME STEP   1 IN STRESS PERIOD    2

 MAXIMUM HEAD CHANGE FOR EACH ITERATION:

    HEAD CHANGE   HEAD CHANGE   HEAD CHANGE   HEAD CHANGE   HEAD CHANGE
  LAYER,ROW,COL LAYER,ROW,COL LAYER,ROW,COL LAYER,ROW,COL LAYER,ROW,COL
 ----------------------------------------------------------------------
      2.001        0.4427        0.9329E-01    0.1936E-01    0.3983E-02
  (  1,  8,  4) (  1,  8,  4) (  1,  8,  4) (  1,  8,  4) (  1,  8,  4)
     0.8080E-03
  (  1,  8,  4)


 OUTPUT CONTROL FOR STRESS PERIOD    2   TIME STEP   1
    PRINT BUDGET
    PRINT HEAD FOR ALL LAYERS
    SAVE BUDGET
 UBUDSV SAVING "              ET" ON UNIT 59 AT TIME STEP  1, STRESS PERIOD    2

  HEAD DEP BOUNDS   PERIOD    2   STEP   1
 BOUNDARY      1   LAYER   1   ROW    13   COL     1   RATE   -0.215321    
 BOUNDARY      2   LAYER   1   ROW    14   COL     9   RATE    0.218865    



   STREAM LEAKAGE   PERIOD    2   STEP   1

 LAYER ROW COL. STREAM  RCH.  FLOW INTO    FLOW TO  FLOW OUT OF  OVRLND.   DIRECT    STREAM    STREAM    STREAM    STREAM  STREAMBED  STREAMBED
                SEG.NO.  NO.  STRM. RCH.   AQUIFER   STRM. RCH.  RUNOFF    PRECIP      ET       HEAD      DEPTH     WIDTH  CONDCTNC.   GRADIENT

   1    1    1     1     1    2.500E+01   2.401E+00  2.260E+01  0.00E+00  0.00E+00  0.00E+00  1.09E+03  1.16E+00  1.28E+01  5.77E-01  1.39E+00
   1    2    2     1     2    2.260E+01   3.511E+00  1.909E+01  0.00E+00  0.00E+00  0.00E+00  1.09E+03  1.11E+00  1.22E+01  8.53E-01  1.37E+00
   1    3    3     1     3    1.909E+01   2.753E+00  1.634E+01  0.00E+00  0.00E+00  0.00E+00  1.08E+03  1.06E+00  1.13E+01  6.78E-01  1.35E+00
   1    3    4     1     4    1.634E+01   2.331E+00  1.400E+01  0.00E+00  0.00E+00  0.00E+00  1.08E+03  1.02E+00  1.05E+01  5.80E-01  1.34E+00
   1    4    5     2     1    4.004E+00   2.654E+00  1.350E+00  0.00E+00  0.00E+00  0.00E+00  1.07E+03  4.02E-01  1.20E+01  7.80E-01  1.13E+00
   1    5    6     2     2    1.350E+00   1.350E+00  0.000E+00  0.00E+00  0.00E+00  0.00E+00  1.07E+03  2.10E-01  1.20E+01  6.00E-01  1.07E+00
   1    6    6     2     3    0.000E+00   0.000E+00  0.000E+00  0.00E+00  0.00E+00  0.00E+00  1.06E+03  0.00E+00  1.20E+01  6.00E-01  1.00E+00
   1    7    6     2     4    0.000E+00   0.000E+00  0.000E+00  0.00E+00  0.00E+00  0.00E+00  1.06E+03  0.00E+00  1.20E+01  6.00E-01  1.00E+00
   1    8    6     2     5    0.000E+00   0.000E+00  0.000E+00  0.00E+00  0.00E+00  0.00E+00  1.05E+03  0.00E+00  1.20E+01  6.00E-01  1.00E+00
   1    3    5     3     1    1.000E+01   2.825E+00  7.175E+00  0.00E+00  0.00E+00  0.00E+00  1.08E+03  1.91E+00  9.64E+00  7.23E-01  1.95E+00
   1    3    6     3     2    7.175E+00   2.491E+00  4.684E+00  0.00E+00  0.00E+00  0.00E+00  1.07E+03  1.73E+00  8.91E+00  6.68E-01  1.86E+00
   1    3    7     3     3    4.684E+00   1.972E+00  2.712E+00  0.00E+00  0.00E+00  0.00E+00  1.07E+03  1.55E+00  8.22E+00  5.55E-01  1.78E+00
   1    4    8     3     4    2.712E+00   2.257E+00  4.558E-01  0.00E+00  0.00E+00  0.00E+00  1.07E+03  1.36E+00  7.45E+00  6.71E-01  1.68E+00
   1    5    8     3     5    4.558E-01   4.558E-01  0.000E+00  0.00E+00  0.00E+00  0.00E+00  1.06E+03  1.16E+00  6.65E+00  4.99E-01  1.58E+00
   1    6    8     3     6    0.000E+00   0.000E+00  0.000E+00  0.00E+00  0.00E+00  0.00E+00  1.06E+03  0.00E+00  6.15E+00  1.84E-01  1.00E+00
   1    5   10     4     1    1.000E+01   9.096E-01  9.090E+00  0.00E+00  0.00E+00  0.00E+00  1.08E+03  6.39E-01  1.00E+01  2.50E-01  1.21E+00
   1    5    9     4     2    9.090E+00   1.802E+00  7.289E+00  0.00E+00  0.00E+00  0.00E+00  1.07E+03  6.03E-01  1.00E+01  5.00E-01  1.20E+00
   1    6    8     4     3    7.289E+00   1.235E+00  6.054E+00  0.00E+00  0.00E+00  0.00E+00  1.06E+03  5.28E-01  1.00E+01  3.50E-01  1.18E+00
   1    6    8     5     1    6.054E+00   1.466E+00  4.588E+00  0.00E+00  0.00E+00  0.00E+00  1.06E+03  5.39E-01  1.04E+01  4.14E-01  1.18E+00
   1    7    7     5     2    4.588E+00   1.484E+00  3.104E+00  0.00E+00  0.00E+00  0.00E+00  1.05E+03  4.81E-01  8.53E+00  4.26E-01  1.16E+00
   1    8    7     5     3    3.104E+00   8.249E-01  2.279E+00  0.00E+00  0.00E+00  0.00E+00  1.05E+03  4.24E-01  6.88E+00  2.41E-01  1.14E+00
   1    8    6     5     4    2.279E+00   4.921E-01  1.787E+00  0.00E+00  0.00E+00  0.00E+00  1.05E+03  3.85E-01  5.82E+00  1.45E-01  1.13E+00
   1    9    6     6     1    1.787E+00   1.787E+00  0.000E+00  0.00E+00  0.00E+00  0.00E+00  1.04E+03  2.51E-01  1.20E+01  6.00E-01  1.08E+00
   1   10    7     6     2    0.000E+00   0.000E+00  0.000E+00  0.00E+00  0.00E+00  0.00E+00  1.04E+03  0.00E+00  1.20E+01  6.00E-01  1.00E+00
   1   11    7     6     3    0.000E+00   0.000E+00  0.000E+00  0.00E+00  0.00E+00  0.00E+00  1.03E+03  0.00E+00  1.20E+01  6.00E-01  1.00E+00
   1   12    7     6     4    0.000E+00   0.000E+00  0.000E+00  0.00E+00  0.00E+00  0.00E+00  1.03E+03  0.00E+00  1.20E+01  6.00E-01  1.00E+00
   1   13    7     6     5    0.000E+00  -2.245E-01  2.245E-01  0.00E+00  0.00E+00  0.00E+00  1.03E+03  4.76E-02  1.20E+01  2.40E-01 -3.12E-01
   1   14    9     7     1    1.500E+02   3.479E+00  1.465E+02  0.00E+00  0.00E+00  0.00E+00  1.04E+03  2.28E+00  5.53E+01  5.59E+00  2.07E-01
   1   13    8     7     2    1.465E+02   7.393E+00  1.391E+02  0.00E+00  0.00E+00  0.00E+00  1.03E+03  2.25E+00  5.51E+01  6.13E+00  4.02E-01
   1   13    7     7     3    1.391E+02   1.508E+01  1.241E+02  0.00E+00  0.00E+00  0.00E+00  1.03E+03  2.19E+00  5.49E+01  5.55E+00  9.06E-01
   1   13    6     8     1    1.243E+02   1.535E+01  1.089E+02  0.00E+00  0.00E+00  0.00E+00  1.02E+03  2.56E+00  3.72E+01  3.79E+00  1.35E+00
   1   13    5     8     2    1.089E+02   1.451E+01  9.442E+01  0.00E+00  0.00E+00  0.00E+00  1.02E+03  2.43E+00  3.53E+01  3.60E+00  1.34E+00
   1   13    4     8     3    9.442E+01   1.061E+01  8.381E+01  0.00E+00  0.00E+00  0.00E+00  1.01E+03  2.32E+00  3.36E+01  3.42E+00  1.03E+00
   1   13    3     8     4    8.381E+01   5.456E+00  7.836E+01  0.00E+00  0.00E+00  0.00E+00  1.01E+03  2.24E+00  3.24E+01  3.30E+00  5.50E-01
   1   13    2     8     5    7.836E+01   1.116E+00  7.724E+01  0.00E+00  0.00E+00  0.00E+00  9.99E+02  2.20E+00  3.19E+01  3.25E+00  1.14E-01
   1   13    1     8     6    7.724E+01   7.786E-01  7.646E+01  0.00E+00  0.00E+00  0.00E+00  9.94E+02  2.19E+00  3.18E+01  1.94E+00  1.34E-01



1
              HEAD IN LAYER   1 AT END OF TIME STEP   1 IN STRESS PERIOD    2
  ---------------------------------------------------------------------------

           1       2       3       4       5       6       7       8       9      10
 ...................................................................................
   1  1056.26 1033.45 6999.00 6999.00 6999.00 6999.00 6999.00 6999.00 6999.00 6999.00
   2  1035.60 1014.21  994.67 6999.00 6999.00  984.78  987.54  988.43 6999.00 6999.00
   3  6999.00  990.96  980.38  971.98  973.20  977.32  983.16  982.66 6999.00 6999.00
   4   970.40  970.31  966.01  959.14  957.76  957.92  964.78  978.11  975.03 6999.00
   5   961.84  955.17  950.50  946.51  947.66  951.79  955.47  961.15  969.15  979.36
   6   952.02  944.43  938.11  933.46  937.09  945.29  951.94  957.83  963.88  976.84
   7   946.61  938.63  931.93  927.22  932.50  942.57  950.38  954.19  962.71 6999.00
   8  6999.00  939.14  932.72  928.03  934.40  944.81  951.56  956.14  965.74 6999.00
   9  6999.00  947.35  941.49  937.18  943.13  952.72  958.42  964.58  974.69 6999.00
  10  6999.00  961.58  957.17  953.26  957.21  964.65  969.94  977.19  986.85  991.98
  11  6999.00  979.03  978.65  974.63  976.69  981.30  985.63  992.87 1000.31 6999.00
  12   993.80  993.42  995.21  993.22  995.74 1000.08 1004.73 1014.23 1019.97 6999.00
  13   993.67  998.73 1003.71 1008.59 1014.03 1020.38 1026.89 1033.55 1034.51 6999.00
  14  6999.00 1001.95 1005.80 1009.78 1014.78 1020.58 1027.38 1034.42 1039.24 6999.00
  15  6999.00 6999.00 1008.57 1011.41 1015.34 1018.84 6999.00 6999.00 6999.00 6999.00
1
  VOLUMETRIC BUDGET FOR ENTIRE MODEL AT END OF TIME STEP  1 IN STRESS PERIOD   2
  ------------------------------------------------------------------------------

     CUMULATIVE VOLUMES      L**3       RATES FOR THIS TIME STEP      L**3/T
     ------------------                 ------------------------

           IN:                                      IN:
           ---                                      ---
             STORAGE = 30212421600.0000               STORAGE =           1.7967
       CONSTANT HEAD =           0.0000         CONSTANT HEAD =           0.0000
               WELLS =           0.0000                 WELLS =           0.0000
                  ET =           0.0000                    ET =           0.0000
     HEAD DEP BOUNDS =   344147584.0000       HEAD DEP BOUNDS =           0.2189
            RECHARGE =  2832753150.0000              RECHARGE =           1.7937
      STREAM LEAKAGE =149722333000.0000        STREAM LEAKAGE =         108.7634

            TOTAL IN =183111664000.0000              TOTAL IN =         112.5727

          OUT:                                     OUT:
          ----                                     ----
             STORAGE =   134528656.0000               STORAGE =          97.9135
       CONSTANT HEAD =           0.0000         CONSTANT HEAD =           0.0000
               WELLS =157787963000.0000                 WELLS =           0.0000
                  ET = 24010352600.0000                    ET =          14.2178
     HEAD DEP BOUNDS =   351728832.0000       HEAD DEP BOUNDS =           0.2153
            RECHARGE =           0.0000              RECHARGE =           0.0000
      STREAM LEAKAGE =   830781632.0000        STREAM LEAKAGE =           0.2245

           TOTAL OUT =183115350000.0000             TOTAL OUT =         112.5711

            IN - OUT =    -3699600.0000              IN - OUT =       1.6216E-03

 PERCENT DISCREPANCY =           0.00     PERCENT DISCREPANCY =           0.00






          TIME SUMMARY AT END OF TIME STEP   1 IN STRESS PERIOD    2
                    SECONDS     MINUTES      HOURS       DAYS        YEARS
                    -----------------------------------------------------------
   TIME STEP LENGTH 1.35567E+06  22595.      376.58      15.691     4.29587E-02
 STRESS PERIOD TIME 1.35567E+06  22595.      376.58      15.691     4.29587E-02
         TOTAL TIME 1.57924E+09 2.63206E+07 4.38677E+05  18278.      50.043    
1
 
 SOLVING FOR HEAD 
     6 ITERATIONS FOR TIME STEP   2 IN STRESS PERIOD    2

 MAXIMUM HEAD CHANGE FOR EACH ITERATION:

    HEAD CHANGE   HEAD CHANGE   HEAD CHANGE   HEAD CHANGE   HEAD CHANGE
  LAYER,ROW,COL LAYER,ROW,COL LAYER,ROW,COL LAYER,ROW,COL LAYER,ROW,COL
 ----------------------------------------------------------------------
      2.051        0.4575        0.9679E-01    0.2014E-01    0.4147E-02
  (  1,  8,  4) (  1,  8,  4) (  1,  8,  4) (  1,  8,  4) (  1,  8,  4)
     0.8412E-03
  (  1,  8,  4)


 NO OUTPUT CONTROL FOR STRESS PERIOD    2   TIME STEP   2
 
 SOLVING FOR HEAD 
     6 ITERATIONS FOR TIME STEP   3 IN STRESS PERIOD    2

 MAXIMUM HEAD CHANGE FOR EACH ITERATION:

    HEAD CHANGE   HEAD CHANGE   HEAD CHANGE   HEAD CHANGE   HEAD CHANGE
  LAYER,ROW,COL LAYER,ROW,COL LAYER,ROW,COL LAYER,ROW,COL LAYER,ROW,COL
 ----------------------------------------------------------------------
      2.067        0.4663        0.9917E-01    0.2070E-01    0.4265E-02
  (  1,  8,  4) (  1,  8,  4) (  1,  8,  4) (  1,  8,  4) (  1,  8,  4)
     0.8639E-03
  (  1,  8,  4)


 NO OUTPUT CONTROL FOR STRESS PERIOD    2   TIME STEP   3
 
 SOLVING FOR HEAD 
     6 ITERATIONS FOR TIME STEP   4 IN STRESS PERIOD    2

 MAXIMUM HEAD CHANGE FOR EACH ITERATION:

    HEAD CHANGE   HEAD CHANGE   HEAD CHANGE   HEAD CHANGE   HEAD CHANGE
  LAYER,ROW,COL LAYER,ROW,COL LAYER,ROW,COL LAYER,ROW,COL LAYER,ROW,COL
 ----------------------------------------------------------------------
      2.056        0.4703        0.1007        0.2108E-01    0.4348E-02
  (  1,  8,  4) (  1,  8,  4) (  1,  8,  4) (  1,  8,  4) (  1,  8,  4)
     0.8784E-03
  (  1,  8,  4)


 NO OUTPUT CONTROL FOR STRESS PERIOD    2   TIME STEP   4
 
 SOLVING FOR HEAD 
     6 ITERATIONS FOR TIME STEP   5 IN STRESS PERIOD    2

 MAXIMUM HEAD CHANGE FOR EACH ITERATION:

    HEAD CHANGE   HEAD CHANGE   HEAD CHANGE   HEAD CHANGE   HEAD CHANGE
  LAYER,ROW,COL LAYER,ROW,COL LAYER,ROW,COL LAYER,ROW,COL LAYER,ROW,COL
 ----------------------------------------------------------------------
      2.023        0.4711        0.1018        0.2138E-01    0.4413E-02
  (  1,  8,  4) (  1,  8,  4) (  1,  8,  4) (  1,  8,  4) (  1,  8,  4)
     0.8878E-03
  (  1,  8,  4)


 OUTPUT CONTROL FOR STRESS PERIOD    2   TIME STEP   5
    PRINT BUDGET
    PRINT HEAD FOR ALL LAYERS
    SAVE BUDGET
 UBUDSV SAVING "              ET" ON UNIT 59 AT TIME STEP  5, STRESS PERIOD    2

  HEAD DEP BOUNDS   PERIOD    2   STEP   5
 BOUNDARY      1   LAYER   1   ROW    13   COL     1   RATE   -0.215583    
 BOUNDARY      2   LAYER   1   ROW    14   COL     9   RATE    0.218865    



   STREAM LEAKAGE   PERIOD    2   STEP   5

 LAYER ROW COL. STREAM  RCH.  FLOW INTO    FLOW TO  FLOW OUT OF  OVRLND.   DIRECT    STREAM    STREAM    STREAM    STREAM  STREAMBED  STREAMBED
                SEG.NO.  NO.  STRM. RCH.   AQUIFER   STRM. RCH.  RUNOFF    PRECIP      ET       HEAD      DEPTH     WIDTH  CONDCTNC.   GRADIENT

   1    1    1     1     1    2.500E+01   2.401E+00  2.260E+01  0.00E+00  0.00E+00  0.00E+00  1.09E+03  1.16E+00  1.28E+01  5.77E-01  1.39E+00
   1    2    2     1     2    2.260E+01   3.511E+00  1.909E+01  0.00E+00  0.00E+00  0.00E+00  1.09E+03  1.11E+00  1.22E+01  8.53E-01  1.37E+00
   1    3    3     1     3    1.909E+01   2.753E+00  1.634E+01  0.00E+00  0.00E+00  0.00E+00  1.08E+03  1.06E+00  1.13E+01  6.78E-01  1.35E+00
   1    3    4     1     4    1.634E+01   2.331E+00  1.400E+01  0.00E+00  0.00E+00  0.00E+00  1.08E+03  1.02E+00  1.05E+01  5.80E-01  1.34E+00
   1    4    5     2     1    4.004E+00   2.654E+00  1.350E+00  0.00E+00  0.00E+00  0.00E+00  1.07E+03  4.02E-01  1.20E+01  7.80E-01  1.13E+00
   1    5    6     2     2    1.350E+00   1.350E+00  0.000E+00  0.00E+00  0.00E+00  0.00E+00  1.07E+03  2.10E-01  1.20E+01  6.00E-01  1.07E+00
   1    6    6     2     3    0.000E+00   0.000E+00  0.000E+00  0.00E+00  0.00E+00  0.00E+00  1.06E+03  0.00E+00  1.20E+01  6.00E-01  1.00E+00
   1    7    6     2     4    0.000E+00   0.000E+00  0.000E+00  0.00E+00  0.00E+00  0.00E+00  1.06E+03  0.00E+00  1.20E+01  6.00E-01  1.00E+00
   1    8    6     2     5    0.000E+00   0.000E+00  0.000E+00  0.00E+00  0.00E+00  0.00E+00  1.05E+03  0.00E+00  1.20E+01  6.00E-01  1.00E+00
   1    3    5     3     1    1.000E+01   2.825E+00  7.175E+00  0.00E+00  0.00E+00  0.00E+00  1.08E+03  1.91E+00  9.64E+00  7.23E-01  1.95E+00
   1    3    6     3     2    7.175E+00   2.491E+00  4.684E+00  0.00E+00  0.00E+00  0.00E+00  1.07E+03  1.73E+00  8.91E+00  6.68E-01  1.86E+00
   1    3    7     3     3    4.684E+00   1.972E+00  2.712E+00  0.00E+00  0.00E+00  0.00E+00  1.07E+03  1.55E+00  8.22E+00  5.55E-01  1.78E+00
   1    4    8     3     4    2.712E+00   2.257E+00  4.558E-01  0.00E+00  0.00E+00  0.00E+00  1.07E+03  1.36E+00  7.45E+00  6.71E-01  1.68E+00
   1    5    8     3     5    4.558E-01   4.558E-01  0.000E+00  0.00E+00  0.00E+00  0.00E+00  1.06E+03  1.16E+00  6.65E+00  4.99E-01  1.58E+00
   1    6    8     3     6    0.000E+00   0.000E+00  0.000E+00  0.00E+00  0.00E+00  0.00E+00  1.06E+03  0.00E+00  6.15E+00  1.84E-01  1.00E+00
   1    5   10     4     1    1.000E+01   9.096E-01  9.090E+00  0.00E+00  0.00E+00  0.00E+00  1.08E+03  6.39E-01  1.00E+01  2.50E-01  1.21E+00
   1    5    9     4     2    9.090E+00   1.802E+00  7.289E+00  0.00E+00  0.00E+00  0.00E+00  1.07E+03  6.03E-01  1.00E+01  5.00E-01  1.20E+00
   1    6    8     4     3    7.289E+00   1.235E+00  6.054E+00  0.00E+00  0.00E+00  0.00E+00  1.06E+03  5.28E-01  1.00E+01  3.50E-01  1.18E+00
   1    6    8     5     1    6.054E+00   1.466E+00  4.588E+00  0.00E+00  0.00E+00  0.00E+00  1.06E+03  5.39E-01  1.04E+01  4.14E-01  1.18E+00
   1    7    7     5     2    4.588E+00   1.484E+00  3.104E+00  0.00E+00  0.00E+00  0.00E+00  1.05E+03  4.81E-01  8.53E+00  4.26E-01  1.16E+00
   1    8    7     5     3    3.104E+00   8.249E-01  2.279E+00  0.00E+00  0.00E+00  0.00E+00  1.05E+03  4.24E-01  6.88E+00  2.41E-01  1.14E+00
   1    8    6     5     4    2.279E+00   4.921E-01  1.787E+00  0.00E+00  0.00E+00  0.00E+00  1.05E+03  3.85E-01  5.82E+00  1.45E-01  1.13E+00
   1    9    6     6     1    1.787E+00   1.787E+00  0.000E+00  0.00E+00  0.00E+00  0.00E+00  1.04E+03  2.51E-01  1.20E+01  6.00E-01  1.08E+00
   1   10    7     6     2    0.000E+00   0.000E+00  0.000E+00  0.00E+00  0.00E+00  0.00E+00  1.04E+03  0.00E+00  1.20E+01  6.00E-01  1.00E+00
   1   11    7     6     3    0.000E+00   0.000E+00  0.000E+00  0.00E+00  0.00E+00  0.00E+00  1.03E+03  0.00E+00  1.20E+01  6.00E-01  1.00E+00
   1   12    7     6     4    0.000E+00   0.000E+00  0.000E+00  0.00E+00  0.00E+00  0.00E+00  1.03E+03  0.00E+00  1.20E+01  6.00E-01  1.00E+00
   1   13    7     6     5    0.000E+00  -2.278E-01  2.278E-01  0.00E+00  0.00E+00  0.00E+00  1.03E+03  4.81E-02  1.20E+01  2.40E-01 -3.16E-01
   1   14    9     7     1    1.500E+02   3.479E+00  1.465E+02  0.00E+00  0.00E+00  0.00E+00  1.04E+03  2.28E+00  5.53E+01  5.59E+00  2.07E-01
   1   13    8     7     2    1.465E+02   7.387E+00  1.391E+02  0.00E+00  0.00E+00  0.00E+00  1.03E+03  2.25E+00  5.51E+01  6.13E+00  4.01E-01
   1   13    7     7     3    1.391E+02   1.500E+01  1.241E+02  0.00E+00  0.00E+00  0.00E+00  1.03E+03  2.19E+00  5.49E+01  5.55E+00  9.02E-01
   1   13    6     8     1    1.244E+02   1.517E+01  1.092E+02  0.00E+00  0.00E+00  0.00E+00  1.02E+03  2.56E+00  3.72E+01  3.79E+00  1.33E+00
   1   13    5     8     2    1.092E+02   1.418E+01  9.501E+01  0.00E+00  0.00E+00  0.00E+00  1.02E+03  2.44E+00  3.54E+01  3.60E+00  1.31E+00
   1   13    4     8     3    9.501E+01   1.033E+01  8.469E+01  0.00E+00  0.00E+00  0.00E+00  1.01E+03  2.32E+00  3.37E+01  3.43E+00  1.00E+00
   1   13    3     8     4    8.469E+01   5.380E+00  7.931E+01  0.00E+00  0.00E+00  0.00E+00  1.01E+03  2.25E+00  3.26E+01  3.32E+00  5.40E-01
   1   13    2     8     5    7.931E+01   1.118E+00  7.819E+01  0.00E+00  0.00E+00  0.00E+00  9.99E+02  2.21E+00  3.21E+01  3.27E+00  1.14E-01
   1   13    1     8     6    7.819E+01   7.883E-01  7.740E+01  0.00E+00  0.00E+00  0.00E+00  9.94E+02  2.20E+00  3.19E+01  1.95E+00  1.35E-01



1
              HEAD IN LAYER   1 AT END OF TIME STEP   5 IN STRESS PERIOD    2
  ---------------------------------------------------------------------------

           1       2       3       4       5       6       7       8       9      10
 ...................................................................................
   1  1056.22 1033.38 6999.00 6999.00 6999.00 6999.00 6999.00 6999.00 6999.00 6999.00
   2  1035.53 1014.12  994.58 6999.00 6999.00  984.68  987.44  988.33 6999.00 6999.00
   3  6999.00  990.87  980.35  972.12  973.31  977.31  983.08  982.56 6999.00 6999.00
   4   970.29  970.23  966.18  959.94  958.55  958.34  964.82  978.04  974.93 6999.00
   5   961.73  955.17  951.36  949.38  950.21  952.97  955.86  961.20  969.07  979.28
   6   951.91  944.62  940.58  941.20  943.71  947.95  952.73  957.99  963.80  976.76
   7   946.50  938.89  935.05  937.10  940.87  946.02  951.43  954.42  962.62 6999.00
   8  6999.00  939.32  935.76  938.60  943.20  948.52  952.81  956.22  965.66 6999.00
   9  6999.00  947.55  944.41  947.13  951.34  956.28  959.67  964.67  974.63 6999.00
  10  6999.00  961.77  959.51  960.91  963.60  967.42  970.95  977.31  986.82  991.94
  11  6999.00  979.10  979.47  977.43  979.22  982.56  986.12  992.92 1000.29 6999.00
  12   993.80  993.45  995.47  993.99  996.50 1000.50 1004.90 1014.25 1019.97 6999.00
  13   993.67  998.75 1003.75 1008.69 1014.13 1020.44 1026.91 1033.55 1034.51 6999.00
  14  6999.00 1001.95 1005.81 1009.80 1014.80 1020.58 1027.38 1034.42 1039.24 6999.00
  15  6999.00 6999.00 1008.57 1011.40 1015.33 1018.84 6999.00 6999.00 6999.00 6999.00
1
  VOLUMETRIC BUDGET FOR ENTIRE MODEL AT END OF TIME STEP  5 IN STRESS PERIOD   2
  ------------------------------------------------------------------------------

     CUMULATIVE VOLUMES      L**3       RATES FOR THIS TIME STEP      L**3/T
     ------------------                 ------------------------

           IN:                                      IN:
           ---                                      ---
             STORAGE = 30219909100.0000               STORAGE =           0.8933
       CONSTANT HEAD =           0.0000         CONSTANT HEAD =           0.0000
               WELLS =           0.0000                 WELLS =           0.0000
                  ET =           0.0000                    ET =           0.0000
     HEAD DEP BOUNDS =   345662272.0000       HEAD DEP BOUNDS =           0.2189
            RECHARGE =  2845167360.0000              RECHARGE =           1.7937
      STREAM LEAKAGE =150471786000.0000        STREAM LEAKAGE =         107.8282

            TOTAL IN =183882531000.0000              TOTAL IN =         110.7342

          OUT:                                     OUT:
          ----                                     ----
             STORAGE =   803742208.0000               STORAGE =          96.0251
       CONSTANT HEAD =           0.0000         CONSTANT HEAD =           0.0000
               WELLS =157787963000.0000                 WELLS =           0.0000
                  ET = 24108933100.0000                    ET =          14.2689
     HEAD DEP BOUNDS =   353219904.0000       HEAD DEP BOUNDS =           0.2156
            RECHARGE =           0.0000              RECHARGE =           0.0000
      STREAM LEAKAGE =   832345664.0000        STREAM LEAKAGE =           0.2278

           TOTAL OUT =183886201000.0000             TOTAL OUT =         110.7373

            IN - OUT =    -3679040.0000              IN - OUT =      -3.1638E-03

 PERCENT DISCREPANCY =           0.00     PERCENT DISCREPANCY =           0.00






          TIME SUMMARY AT END OF TIME STEP   5 IN STRESS PERIOD    2
                    SECONDS     MINUTES      HOURS       DAYS        YEARS
                    -----------------------------------------------------------
   TIME STEP LENGTH 1.98484E+06  33081.      551.34      22.973     6.28958E-02
 STRESS PERIOD TIME 8.27652E+06 1.37942E+05  2299.0      95.793     0.26227    
         TOTAL TIME 1.58616E+09 2.64359E+07 4.40599E+05  18358.      50.262    
1
 
 SOLVING FOR HEAD 
     6 ITERATIONS FOR TIME STEP   6 IN STRESS PERIOD    2

 MAXIMUM HEAD CHANGE FOR EACH ITERATION:

    HEAD CHANGE   HEAD CHANGE   HEAD CHANGE   HEAD CHANGE   HEAD CHANGE
  LAYER,ROW,COL LAYER,ROW,COL LAYER,ROW,COL LAYER,ROW,COL LAYER,ROW,COL
 ----------------------------------------------------------------------
      1.977        0.4704        0.1027        0.2167E-01    0.4478E-02
  (  1,  8,  4) (  1,  8,  4) (  1,  8,  4) (  1,  8,  4) (  1,  8,  4)
     0.8953E-03
  (  1,  8,  4)


 NO OUTPUT CONTROL FOR STRESS PERIOD    2   TIME STEP   6
 
 SOLVING FOR HEAD 
     6 ITERATIONS FOR TIME STEP   7 IN STRESS PERIOD    2

 MAXIMUM HEAD CHANGE FOR EACH ITERATION:

    HEAD CHANGE   HEAD CHANGE   HEAD CHANGE   HEAD CHANGE   HEAD CHANGE
  LAYER,ROW,COL LAYER,ROW,COL LAYER,ROW,COL LAYER,ROW,COL LAYER,ROW,COL
 ----------------------------------------------------------------------
      1.923        0.4697        0.1040        0.2203E-01    0.4559E-02
  (  1,  8,  4) (  1,  8,  4) (  1,  8,  4) (  1,  8,  4) (  1,  8,  4)
     0.9043E-03
  (  1,  8,  4)


 NO OUTPUT CONTROL FOR STRESS PERIOD    2   TIME STEP   7
 
 SOLVING FOR HEAD 
     6 ITERATIONS FOR TIME STEP   8 IN STRESS PERIOD    2

 MAXIMUM HEAD CHANGE FOR EACH ITERATION:

    HEAD CHANGE   HEAD CHANGE   HEAD CHANGE   HEAD CHANGE   HEAD CHANGE
  LAYER,ROW,COL LAYER,ROW,COL LAYER,ROW,COL LAYER,ROW,COL LAYER,ROW,COL
 ----------------------------------------------------------------------
      1.867        0.4703        0.1059        0.2255E-01    0.4674E-02
  (  1,  8,  4) (  1,  8,  4) (  1,  8,  4) (  1,  8,  4) (  1,  8,  4)
     0.9180E-03
  (  1,  8,  4)


 NO OUTPUT CONTROL FOR STRESS PERIOD    2   TIME STEP   8
 
 SOLVING FOR HEAD 
     6 ITERATIONS FOR TIME STEP   9 IN STRESS PERIOD    2

 MAXIMUM HEAD CHANGE FOR EACH ITERATION:

    HEAD CHANGE   HEAD CHANGE   HEAD CHANGE   HEAD CHANGE   HEAD CHANGE
  LAYER,ROW,COL LAYER,ROW,COL LAYER,ROW,COL LAYER,ROW,COL LAYER,ROW,COL
 ----------------------------------------------------------------------
      1.814        0.4733        0.1086        0.2330E-01    0.4839E-02
  (  1,  8,  4) (  1,  8,  4) (  1,  8,  4) (  1,  8,  4) (  1,  8,  4)
     0.9395E-03
  (  1,  8,  4)


 NO OUTPUT CONTROL FOR STRESS PERIOD    2   TIME STEP   9
 
 SOLVING FOR HEAD 
     6 ITERATIONS FOR TIME STEP  10 IN STRESS PERIOD    2

 MAXIMUM HEAD CHANGE FOR EACH ITERATION:

    HEAD CHANGE   HEAD CHANGE   HEAD CHANGE   HEAD CHANGE   HEAD CHANGE
  LAYER,ROW,COL LAYER,ROW,COL LAYER,ROW,COL LAYER,ROW,COL LAYER,ROW,COL
 ----------------------------------------------------------------------
      1.765        0.4793        0.1147        0.2473E-01    0.5149E-02
  (  1,  8,  4) (  1,  8,  4) (  1,  8,  5) (  1,  8,  5) (  1,  8,  5)
     0.9708E-03
  (  1,  8,  4)


 OUTPUT CONTROL FOR STRESS PERIOD    2   TIME STEP  10
    PRINT BUDGET
    PRINT HEAD FOR ALL LAYERS
    SAVE BUDGET
 UBUDSV SAVING "              ET" ON UNIT 59 AT TIME STEP 10, STRESS PERIOD    2

  HEAD DEP BOUNDS   PERIOD    2   STEP  10
 BOUNDARY      1   LAYER   1   ROW    13   COL     1   RATE   -0.217328    
 BOUNDARY      2   LAYER   1   ROW    14   COL     9   RATE    0.218854    



   STREAM LEAKAGE   PERIOD    2   STEP  10

 LAYER ROW COL. STREAM  RCH.  FLOW INTO    FLOW TO  FLOW OUT OF  OVRLND.   DIRECT    STREAM    STREAM    STREAM    STREAM  STREAMBED  STREAMBED
                SEG.NO.  NO.  STRM. RCH.   AQUIFER   STRM. RCH.  RUNOFF    PRECIP      ET       HEAD      DEPTH     WIDTH  CONDCTNC.   GRADIENT

   1    1    1     1     1    2.500E+01   2.401E+00  2.260E+01  0.00E+00  0.00E+00  0.00E+00  1.09E+03  1.16E+00  1.28E+01  5.77E-01  1.39E+00
   1    2    2     1     2    2.260E+01   3.511E+00  1.909E+01  0.00E+00  0.00E+00  0.00E+00  1.09E+03  1.11E+00  1.22E+01  8.53E-01  1.37E+00
   1    3    3     1     3    1.909E+01   2.753E+00  1.634E+01  0.00E+00  0.00E+00  0.00E+00  1.08E+03  1.06E+00  1.13E+01  6.78E-01  1.35E+00
   1    3    4     1     4    1.634E+01   2.331E+00  1.400E+01  0.00E+00  0.00E+00  0.00E+00  1.08E+03  1.02E+00  1.05E+01  5.80E-01  1.34E+00
   1    4    5     2     1    4.004E+00   2.654E+00  1.350E+00  0.00E+00  0.00E+00  0.00E+00  1.07E+03  4.02E-01  1.20E+01  7.80E-01  1.13E+00
   1    5    6     2     2    1.350E+00   1.350E+00  0.000E+00  0.00E+00  0.00E+00  0.00E+00  1.07E+03  2.10E-01  1.20E+01  6.00E-01  1.07E+00
   1    6    6     2     3    0.000E+00   0.000E+00  0.000E+00  0.00E+00  0.00E+00  0.00E+00  1.06E+03  0.00E+00  1.20E+01  6.00E-01  1.00E+00
   1    7    6     2     4    0.000E+00   0.000E+00  0.000E+00  0.00E+00  0.00E+00  0.00E+00  1.06E+03  0.00E+00  1.20E+01  6.00E-01  1.00E+00
   1    8    6     2     5    0.000E+00   0.000E+00  0.000E+00  0.00E+00  0.00E+00  0.00E+00  1.05E+03  0.00E+00  1.20E+01  6.00E-01  1.00E+00
   1    3    5     3     1    1.000E+01   2.825E+00  7.175E+00  0.00E+00  0.00E+00  0.00E+00  1.08E+03  1.91E+00  9.64E+00  7.23E-01  1.95E+00
   1    3    6     3     2    7.175E+00   2.491E+00  4.684E+00  0.00E+00  0.00E+00  0.00E+00  1.07E+03  1.73E+00  8.91E+00  6.68E-01  1.86E+00
   1    3    7     3     3    4.684E+00   1.972E+00  2.712E+00  0.00E+00  0.00E+00  0.00E+00  1.07E+03  1.55E+00  8.22E+00  5.55E-01  1.78E+00
   1    4    8     3     4    2.712E+00   2.257E+00  4.558E-01  0.00E+00  0.00E+00  0.00E+00  1.07E+03  1.36E+00  7.45E+00  6.71E-01  1.68E+00
   1    5    8     3     5    4.558E-01   4.558E-01  0.000E+00  0.00E+00  0.00E+00  0.00E+00  1.06E+03  1.16E+00  6.65E+00  4.99E-01  1.58E+00
   1    6    8     3     6    0.000E+00   0.000E+00  0.000E+00  0.00E+00  0.00E+00  0.00E+00  1.06E+03  0.00E+00  6.15E+00  1.84E-01  1.00E+00
   1    5   10     4     1    1.000E+01   9.096E-01  9.090E+00  0.00E+00  0.00E+00  0.00E+00  1.08E+03  6.39E-01  1.00E+01  2.50E-01  1.21E+00
   1    5    9     4     2    9.090E+00   1.802E+00  7.289E+00  0.00E+00  0.00E+00  0.00E+00  1.07E+03  6.03E-01  1.00E+01  5.00E-01  1.20E+00
   1    6    8     4     3    7.289E+00   1.235E+00  6.054E+00  0.00E+00  0.00E+00  0.00E+00  1.06E+03  5.28E-01  1.00E+01  3.50E-01  1.18E+00
   1    6    8     5     1    6.054E+00   1.466E+00  4.588E+00  0.00E+00  0.00E+00  0.00E+00  1.06E+03  5.39E-01  1.04E+01  4.14E-01  1.18E+00
   1    7    7     5     2    4.588E+00   1.484E+00  3.104E+00  0.00E+00  0.00E+00  0.00E+00  1.05E+03  4.81E-01  8.53E+00  4.26E-01  1.16E+00
   1    8    7     5     3    3.104E+00   8.249E-01  2.279E+00  0.00E+00  0.00E+00  0.00E+00  1.05E+03  4.24E-01  6.88E+00  2.41E-01  1.14E+00
   1    8    6     5     4    2.279E+00   4.921E-01  1.787E+00  0.00E+00  0.00E+00  0.00E+00  1.05E+03  3.85E-01  5.82E+00  1.45E-01  1.13E+00
   1    9    6     6     1    1.787E+00   1.787E+00  0.000E+00  0.00E+00  0.00E+00  0.00E+00  1.04E+03  2.51E-01  1.20E+01  6.00E-01  1.08E+00
   1   10    7     6     2    0.000E+00   0.000E+00  0.000E+00  0.00E+00  0.00E+00  0.00E+00  1.04E+03  0.00E+00  1.20E+01  6.00E-01  1.00E+00
   1   11    7     6     3    0.000E+00   0.000E+00  0.000E+00  0.00E+00  0.00E+00  0.00E+00  1.03E+03  0.00E+00  1.20E+01  6.00E-01  1.00E+00
   1   12    7     6     4    0.000E+00   0.000E+00  0.000E+00  0.00E+00  0.00E+00  0.00E+00  1.03E+03  0.00E+00  1.20E+01  6.00E-01  1.00E+00
   1   13    7     6     5    0.000E+00  -2.526E-01  2.526E-01  0.00E+00  0.00E+00  0.00E+00  1.03E+03  5.12E-02  1.20E+01  2.40E-01 -3.51E-01
   1   14    9     7     1    1.500E+02   3.478E+00  1.465E+02  0.00E+00  0.00E+00  0.00E+00  1.04E+03  2.28E+00  5.53E+01  5.59E+00  2.07E-01
   1   13    8     7     2    1.465E+02   7.305E+00  1.392E+02  0.00E+00  0.00E+00  0.00E+00  1.03E+03  2.25E+00  5.51E+01  6.13E+00  3.97E-01
   1   13    7     7     3    1.392E+02   1.442E+01  1.248E+02  0.00E+00  0.00E+00  0.00E+00  1.03E+03  2.19E+00  5.49E+01  5.55E+00  8.67E-01
   1   13    6     8     1    1.250E+02   1.430E+01  1.108E+02  0.00E+00  0.00E+00  0.00E+00  1.02E+03  2.57E+00  3.73E+01  3.80E+00  1.25E+00
   1   13    5     8     2    1.108E+02   1.299E+01  9.776E+01  0.00E+00  0.00E+00  0.00E+00  1.02E+03  2.46E+00  3.56E+01  3.63E+00  1.19E+00
   1   13    4     8     3    9.776E+01   9.298E+00  8.846E+01  0.00E+00  0.00E+00  0.00E+00  1.01E+03  2.36E+00  3.42E+01  3.48E+00  8.90E-01
   1   13    3     8     4    8.846E+01   4.883E+00  8.358E+01  0.00E+00  0.00E+00  0.00E+00  1.01E+03  2.29E+00  3.32E+01  3.38E+00  4.82E-01
   1   13    2     8     5    8.358E+01   1.057E+00  8.252E+01  0.00E+00  0.00E+00  0.00E+00  9.99E+02  2.26E+00  3.27E+01  3.33E+00  1.06E-01
   1   13    1     8     6    8.252E+01   8.028E-01  8.172E+01  0.00E+00  0.00E+00  0.00E+00  9.94E+02  2.25E+00  3.26E+01  1.99E+00  1.34E-01



1
              HEAD IN LAYER   1 AT END OF TIME STEP  10 IN STRESS PERIOD    2
  ---------------------------------------------------------------------------

           1       2       3       4       5       6       7       8       9      10
 ...................................................................................
   1  1056.15 1033.25 6999.00 6999.00 6999.00 6999.00 6999.00 6999.00 6999.00 6999.00
   2  1035.40 1014.00  994.64 6999.00 6999.00  984.55  987.27  988.13 6999.00 6999.00
   3  6999.00  990.89  981.05  973.58  974.77  978.18  983.29  982.45 6999.00 6999.00
   4   970.11  970.45  967.80  963.07  961.80  960.98  966.02  978.30  974.78 6999.00
   5   961.59  956.04  954.97  955.12  955.53  956.90  958.33  962.41  969.34  979.18
   6   951.81  946.34  946.86  950.13  951.65  953.65  956.12  959.76  964.06  976.62
   7   946.40  941.10  943.16  948.46  950.79  953.15  955.73  956.67  962.54 6999.00
   8  6999.00  941.22  944.38  950.98  953.84  956.32  957.94  957.68  965.57 6999.00
   9  6999.00  949.39  952.34  958.43  961.06  963.56  964.60  966.01  974.60 6999.00
  10  6999.00  963.28  965.49  969.46  971.18  973.17  974.91  978.61  986.92  991.87
  11  6999.00  979.91  982.58  982.58  984.01  986.26  988.67  993.77 1000.37 6999.00
  12   993.85  993.83  996.76  996.26  998.78 1002.29 1006.12 1014.62 1020.01 6999.00
  13   993.72  998.81 1003.97 1009.06 1014.50 1020.69 1027.01 1033.56 1034.52 6999.00
  14  6999.00 1001.97 1005.88 1009.92 1014.92 1020.67 1027.42 1034.43 1039.24 6999.00
  15  6999.00 6999.00 1008.57 1011.41 1015.34 1018.85 6999.00 6999.00 6999.00 6999.00
1
  VOLUMETRIC BUDGET FOR ENTIRE MODEL AT END OF TIME STEP 10 IN STRESS PERIOD   2
  ------------------------------------------------------------------------------

     CUMULATIVE VOLUMES      L**3       RATES FOR THIS TIME STEP      L**3/T
     ------------------                 ------------------------

           IN:                                      IN:
           ---                                      ---
             STORAGE = 30226901000.0000               STORAGE =           0.3377
       CONSTANT HEAD =           0.0000         CONSTANT HEAD =           0.0000
               WELLS =           0.0000                 WELLS =           0.0000
                  ET =           0.0000                    ET =           0.0000
     HEAD DEP BOUNDS =   348579552.0000       HEAD DEP BOUNDS =           0.2189
            RECHARGE =  2869076990.0000              RECHARGE =           1.7937
      STREAM LEAKAGE =151876256000.0000        STREAM LEAKAGE =         103.5356

            TOTAL IN =185320817000.0000              TOTAL IN =         105.8859

          OUT:                                     OUT:
          ----                                     ----
             STORAGE =  2043824640.0000               STORAGE =          90.8978
       CONSTANT HEAD =           0.0000         CONSTANT HEAD =           0.0000
               WELLS =157787963000.0000                 WELLS =           0.0000
                  ET = 24300890100.0000                    ET =          14.4984
     HEAD DEP BOUNDS =   356106496.0000       HEAD DEP BOUNDS =           0.2173
            RECHARGE =           0.0000              RECHARGE =           0.0000
      STREAM LEAKAGE =   835562496.0000        STREAM LEAKAGE =           0.2526

           TOTAL OUT =185324339000.0000             TOTAL OUT =         105.8661

            IN - OUT =    -3533856.0000              IN - OUT =       1.9774E-02

 PERCENT DISCREPANCY =           0.00     PERCENT DISCREPANCY =           0.02






          TIME SUMMARY AT END OF TIME STEP  10 IN STRESS PERIOD    2
                    SECONDS     MINUTES      HOURS       DAYS        YEARS
                    -----------------------------------------------------------
   TIME STEP LENGTH 3.19660E+06  53277.      887.95      36.998     0.10129    
 STRESS PERIOD TIME 2.16059E+07 3.60099E+05  6001.6      250.07     0.68465    
         TOTAL TIME 1.59949E+09 2.66581E+07 4.44302E+05  18513.      50.685    
1
 
 SOLVING FOR HEAD 
     7 ITERATIONS FOR TIME STEP  11 IN STRESS PERIOD    2

 MAXIMUM HEAD CHANGE FOR EACH ITERATION:

    HEAD CHANGE   HEAD CHANGE   HEAD CHANGE   HEAD CHANGE   HEAD CHANGE
  LAYER,ROW,COL LAYER,ROW,COL LAYER,ROW,COL LAYER,ROW,COL LAYER,ROW,COL
 ----------------------------------------------------------------------
      1.722        0.4887        0.1229        0.2678E-01    0.5593E-02
  (  1,  8,  4) (  1,  8,  4) (  1,  8,  5) (  1,  8,  5) (  1,  8,  5)
     0.1014E-02    0.3252E-03
  (  1,  8,  4) (  1,  8,  5)


 NO OUTPUT CONTROL FOR STRESS PERIOD    2   TIME STEP  11
 
 SOLVING FOR HEAD 
     7 ITERATIONS FOR TIME STEP  12 IN STRESS PERIOD    2

 MAXIMUM HEAD CHANGE FOR EACH ITERATION:

    HEAD CHANGE   HEAD CHANGE   HEAD CHANGE   HEAD CHANGE   HEAD CHANGE
  LAYER,ROW,COL LAYER,ROW,COL LAYER,ROW,COL LAYER,ROW,COL LAYER,ROW,COL
 ----------------------------------------------------------------------
      1.724        0.5076        0.1325        0.2924E-01    0.6127E-02
  (  1,  8,  3) (  1,  8,  5) (  1,  8,  5) (  1,  8,  5) (  1,  8,  5)
     0.1076E-02    0.3691E-03
  (  1,  8,  5) (  1,  8,  5)


 NO OUTPUT CONTROL FOR STRESS PERIOD    2   TIME STEP  12
 
 SOLVING FOR HEAD 
     7 ITERATIONS FOR TIME STEP  13 IN STRESS PERIOD    2

 MAXIMUM HEAD CHANGE FOR EACH ITERATION:

    HEAD CHANGE   HEAD CHANGE   HEAD CHANGE   HEAD CHANGE   HEAD CHANGE
  LAYER,ROW,COL LAYER,ROW,COL LAYER,ROW,COL LAYER,ROW,COL LAYER,ROW,COL
 ----------------------------------------------------------------------
      1.771        0.5325        0.1437        0.3218E-01    0.6764E-02
  (  1,  8,  3) (  1,  8,  5) (  1,  8,  5) (  1,  8,  5) (  1,  8,  5)
     0.1176E-02    0.4239E-03
  (  1,  7,  5) (  1,  7,  5)


 OUTPUT CONTROL FOR STRESS PERIOD    2   TIME STEP  13
    PRINT BUDGET
    PRINT HEAD FOR ALL LAYERS
    SAVE BUDGET
 UBUDSV SAVING "              ET" ON UNIT 59 AT TIME STEP 13, STRESS PERIOD    2

  HEAD DEP BOUNDS   PERIOD    2   STEP  13
 BOUNDARY      1   LAYER   1   ROW    13   COL     1   RATE   -0.219245    
 BOUNDARY      2   LAYER   1   ROW    14   COL     9   RATE    0.218807    



   STREAM LEAKAGE   PERIOD    2   STEP  13

 LAYER ROW COL. STREAM  RCH.  FLOW INTO    FLOW TO  FLOW OUT OF  OVRLND.   DIRECT    STREAM    STREAM    STREAM    STREAM  STREAMBED  STREAMBED
                SEG.NO.  NO.  STRM. RCH.   AQUIFER   STRM. RCH.  RUNOFF    PRECIP      ET       HEAD      DEPTH     WIDTH  CONDCTNC.   GRADIENT

   1    1    1     1     1    2.500E+01   2.401E+00  2.260E+01  0.00E+00  0.00E+00  0.00E+00  1.09E+03  1.16E+00  1.28E+01  5.77E-01  1.39E+00
   1    2    2     1     2    2.260E+01   3.511E+00  1.909E+01  0.00E+00  0.00E+00  0.00E+00  1.09E+03  1.11E+00  1.22E+01  8.53E-01  1.37E+00
   1    3    3     1     3    1.909E+01   2.753E+00  1.634E+01  0.00E+00  0.00E+00  0.00E+00  1.08E+03  1.06E+00  1.13E+01  6.78E-01  1.35E+00
   1    3    4     1     4    1.634E+01   2.331E+00  1.400E+01  0.00E+00  0.00E+00  0.00E+00  1.08E+03  1.02E+00  1.05E+01  5.80E-01  1.34E+00
   1    4    5     2     1    4.004E+00   2.654E+00  1.350E+00  0.00E+00  0.00E+00  0.00E+00  1.07E+03  4.02E-01  1.20E+01  7.80E-01  1.13E+00
   1    5    6     2     2    1.350E+00   1.350E+00  0.000E+00  0.00E+00  0.00E+00  0.00E+00  1.07E+03  2.10E-01  1.20E+01  6.00E-01  1.07E+00
   1    6    6     2     3    0.000E+00   0.000E+00  0.000E+00  0.00E+00  0.00E+00  0.00E+00  1.06E+03  0.00E+00  1.20E+01  6.00E-01  1.00E+00
   1    7    6     2     4    0.000E+00   0.000E+00  0.000E+00  0.00E+00  0.00E+00  0.00E+00  1.06E+03  0.00E+00  1.20E+01  6.00E-01  1.00E+00
   1    8    6     2     5    0.000E+00   0.000E+00  0.000E+00  0.00E+00  0.00E+00  0.00E+00  1.05E+03  0.00E+00  1.20E+01  6.00E-01  1.00E+00
   1    3    5     3     1    1.000E+01   2.825E+00  7.175E+00  0.00E+00  0.00E+00  0.00E+00  1.08E+03  1.91E+00  9.64E+00  7.23E-01  1.95E+00
   1    3    6     3     2    7.175E+00   2.491E+00  4.684E+00  0.00E+00  0.00E+00  0.00E+00  1.07E+03  1.73E+00  8.91E+00  6.68E-01  1.86E+00
   1    3    7     3     3    4.684E+00   1.972E+00  2.712E+00  0.00E+00  0.00E+00  0.00E+00  1.07E+03  1.55E+00  8.22E+00  5.55E-01  1.78E+00
   1    4    8     3     4    2.712E+00   2.257E+00  4.558E-01  0.00E+00  0.00E+00  0.00E+00  1.07E+03  1.36E+00  7.45E+00  6.71E-01  1.68E+00
   1    5    8     3     5    4.558E-01   4.558E-01  0.000E+00  0.00E+00  0.00E+00  0.00E+00  1.06E+03  1.16E+00  6.65E+00  4.99E-01  1.58E+00
   1    6    8     3     6    0.000E+00   0.000E+00  0.000E+00  0.00E+00  0.00E+00  0.00E+00  1.06E+03  0.00E+00  6.15E+00  1.84E-01  1.00E+00
   1    5   10     4     1    1.000E+01   9.096E-01  9.090E+00  0.00E+00  0.00E+00  0.00E+00  1.08E+03  6.39E-01  1.00E+01  2.50E-01  1.21E+00
   1    5    9     4     2    9.090E+00   1.802E+00  7.289E+00  0.00E+00  0.00E+00  0.00E+00  1.07E+03  6.03E-01  1.00E+01  5.00E-01  1.20E+00
   1    6    8     4     3    7.289E+00   1.235E+00  6.054E+00  0.00E+00  0.00E+00  0.00E+00  1.06E+03  5.28E-01  1.00E+01  3.50E-01  1.18E+00
   1    6    8     5     1    6.054E+00   1.466E+00  4.588E+00  0.00E+00  0.00E+00  0.00E+00  1.06E+03  5.39E-01  1.04E+01  4.14E-01  1.18E+00
   1    7    7     5     2    4.588E+00   1.484E+00  3.104E+00  0.00E+00  0.00E+00  0.00E+00  1.05E+03  4.81E-01  8.53E+00  4.26E-01  1.16E+00
   1    8    7     5     3    3.104E+00   8.249E-01  2.279E+00  0.00E+00  0.00E+00  0.00E+00  1.05E+03  4.24E-01  6.88E+00  2.41E-01  1.14E+00
   1    8    6     5     4    2.279E+00   4.921E-01  1.787E+00  0.00E+00  0.00E+00  0.00E+00  1.05E+03  3.85E-01  5.82E+00  1.45E-01  1.13E+00
   1    9    6     6     1    1.787E+00   1.787E+00  0.000E+00  0.00E+00  0.00E+00  0.00E+00  1.04E+03  2.51E-01  1.20E+01  6.00E-01  1.08E+00
   1   10    7     6     2    0.000E+00   0.000E+00  0.000E+00  0.00E+00  0.00E+00  0.00E+00  1.04E+03  0.00E+00  1.20E+01  6.00E-01  1.00E+00
   1   11    7     6     3    0.000E+00   0.000E+00  0.000E+00  0.00E+00  0.00E+00  0.00E+00  1.03E+03  0.00E+00  1.20E+01  6.00E-01  1.00E+00
   1   12    7     6     4    0.000E+00   0.000E+00  0.000E+00  0.00E+00  0.00E+00  0.00E+00  1.03E+03  0.00E+00  1.20E+01  6.00E-01  1.00E+00
   1   13    7     6     5    0.000E+00  -2.816E-01  2.816E-01  0.00E+00  0.00E+00  0.00E+00  1.03E+03  5.46E-02  1.20E+01  2.40E-01 -3.91E-01
   1   14    9     7     1    1.500E+02   3.471E+00  1.465E+02  0.00E+00  0.00E+00  0.00E+00  1.04E+03  2.28E+00  5.53E+01  5.59E+00  2.07E-01
   1   13    8     7     2    1.465E+02   7.177E+00  1.394E+02  0.00E+00  0.00E+00  0.00E+00  1.03E+03  2.25E+00  5.51E+01  6.13E+00  3.90E-01
   1   13    7     7     3    1.394E+02   1.375E+01  1.256E+02  0.00E+00  0.00E+00  0.00E+00  1.03E+03  2.20E+00  5.49E+01  5.55E+00  8.26E-01
   1   13    6     8     1    1.259E+02   1.344E+01  1.124E+02  0.00E+00  0.00E+00  0.00E+00  1.02E+03  2.58E+00  3.75E+01  3.82E+00  1.17E+00
   1   13    5     8     2    1.124E+02   1.197E+01  1.005E+02  0.00E+00  0.00E+00  0.00E+00  1.02E+03  2.48E+00  3.59E+01  3.66E+00  1.09E+00
   1   13    4     8     3    1.005E+02   8.421E+00  9.205E+01  0.00E+00  0.00E+00  0.00E+00  1.01E+03  2.39E+00  3.46E+01  3.52E+00  7.96E-01
   1   13    3     8     4    9.205E+01   4.368E+00  8.768E+01  0.00E+00  0.00E+00  0.00E+00  1.01E+03  2.32E+00  3.37E+01  3.43E+00  4.24E-01
   1   13    2     8     5    8.768E+01   9.610E-01  8.672E+01  0.00E+00  0.00E+00  0.00E+00  9.99E+02  2.30E+00  3.33E+01  3.40E+00  9.43E-02
   1   13    1     8     6    8.672E+01   8.018E-01  8.592E+01  0.00E+00  0.00E+00  0.00E+00  9.94E+02  2.29E+00  3.32E+01  2.03E+00  1.32E-01



1
              HEAD IN LAYER   1 AT END OF TIME STEP  13 IN STRESS PERIOD    2
  ---------------------------------------------------------------------------

           1       2       3       4       5       6       7       8       9      10
 ...................................................................................
   1  1056.09 1033.17 6999.00 6999.00 6999.00 6999.00 6999.00 6999.00 6999.00 6999.00
   2  1035.30 1014.06  995.10 6999.00 6999.00  984.61  987.20  987.98 6999.00 6999.00
   3  6999.00  991.30  982.40  975.66  976.97  979.81  984.07  982.59 6999.00 6999.00
   4   970.04  971.20  969.98  966.24  965.17  964.10  968.03  979.17  974.78 6999.00
   5   961.62  957.63  958.55  959.55  959.84  960.68  961.34  964.47  970.24  979.24
   6   951.92  948.84  951.95  955.82  957.01  958.27  959.75  962.41  964.95  976.52
   7   946.53  944.22  949.41  955.13  956.97  958.49  959.98  959.80  962.64 6999.00
   8  6999.00  944.25  951.16  958.03  960.30  962.00  962.74  960.22  965.61 6999.00
   9  6999.00  952.20  958.52  964.91  967.03  968.88  969.19  968.26  974.74 6999.00
  10  6999.00  965.53  970.23  974.64  976.07  977.56  978.70  980.60  987.30  991.84
  11  6999.00  981.25  985.38  986.11  987.46  989.38  991.33  995.16 1000.68 6999.00
  12   993.98  994.43  998.02  998.08 1000.64 1003.97 1007.51 1015.27 1020.16 6999.00
  13   993.77  998.89 1004.18 1009.37 1014.83 1020.94 1027.14 1033.58 1034.53 6999.00
  14  6999.00 1002.00 1005.99 1010.09 1015.10 1020.80 1027.49 1034.44 1039.24 6999.00
  15  6999.00 6999.00 1008.59 1011.44 1015.38 1018.87 6999.00 6999.00 6999.00 6999.00
1
  VOLUMETRIC BUDGET FOR ENTIRE MODEL AT END OF TIME STEP 13 IN STRESS PERIOD   2
  ------------------------------------------------------------------------------

     CUMULATIVE VOLUMES      L**3       RATES FOR THIS TIME STEP      L**3/T
     ------------------                 ------------------------

           IN:                                      IN:
           ---                                      ---
             STORAGE = 30228924400.0000               STORAGE =           0.1319
       CONSTANT HEAD =           0.0000         CONSTANT HEAD =           0.0000
               WELLS =           0.0000                 WELLS =           0.0000
                  ET =           0.0000                    ET =           0.0000
     HEAD DEP BOUNDS =   351126400.0000       HEAD DEP BOUNDS =           0.2188
            RECHARGE =  2889954300.0000              RECHARGE =           1.7937
      STREAM LEAKAGE =153048711000.0000        STREAM LEAKAGE =          99.3634

            TOTAL IN =186518716000.0000              TOTAL IN =         101.5078

          OUT:                                     OUT:
          ----                                     ----
             STORAGE =  3065535740.0000               STORAGE =          86.2829
       CONSTANT HEAD =           0.0000         CONSTANT HEAD =           0.0000
               WELLS =157787963000.0000                 WELLS =           0.0000
                  ET = 24471332900.0000                    ET =          14.7155
     HEAD DEP BOUNDS =   358650816.0000       HEAD DEP BOUNDS =           0.2192
            RECHARGE =           0.0000              RECHARGE =           0.0000
      STREAM LEAKAGE =   838726656.0000        STREAM LEAKAGE =           0.2816

           TOTAL OUT =186522206000.0000             TOTAL OUT =         101.4993

            IN - OUT =    -3493184.0000              IN - OUT =       8.5503E-03

 PERCENT DISCREPANCY =           0.00     PERCENT DISCREPANCY =           0.01






          TIME SUMMARY AT END OF TIME STEP  13 IN STRESS PERIOD    2
                    SECONDS     MINUTES      HOURS       DAYS        YEARS
                    -----------------------------------------------------------
   TIME STEP LENGTH 4.25468E+06  70911.      1181.9      49.244     0.13482    
 STRESS PERIOD TIME 3.32448E+07 5.54079E+05  9234.7      384.78      1.0535    
         TOTAL TIME 1.61112E+09 2.68521E+07 4.47535E+05  18647.      51.053    
1
 
 SOLVING FOR HEAD 
     7 ITERATIONS FOR TIME STEP  14 IN STRESS PERIOD    2

 MAXIMUM HEAD CHANGE FOR EACH ITERATION:

    HEAD CHANGE   HEAD CHANGE   HEAD CHANGE   HEAD CHANGE   HEAD CHANGE
  LAYER,ROW,COL LAYER,ROW,COL LAYER,ROW,COL LAYER,ROW,COL LAYER,ROW,COL
 ----------------------------------------------------------------------
      1.804        0.5603        0.1566        0.3569E-01    0.7554E-02
  (  1,  8,  3) (  1,  8,  5) (  1,  8,  5) (  1,  8,  5) (  1,  7,  5)
     0.1297E-02    0.4943E-03
  (  1,  7,  5) (  1,  7,  5)


 NO OUTPUT CONTROL FOR STRESS PERIOD    2   TIME STEP  14
 
 SOLVING FOR HEAD 
     7 ITERATIONS FOR TIME STEP  15 IN STRESS PERIOD    2

 MAXIMUM HEAD CHANGE FOR EACH ITERATION:

    HEAD CHANGE   HEAD CHANGE   HEAD CHANGE   HEAD CHANGE   HEAD CHANGE
  LAYER,ROW,COL LAYER,ROW,COL LAYER,ROW,COL LAYER,ROW,COL LAYER,ROW,COL
 ----------------------------------------------------------------------
      1.830        0.5910        0.1724        0.4018E-01    0.8564E-02
  (  1,  8,  3) (  1,  8,  5) (  1,  7,  5) (  1,  7,  5) (  1,  7,  5)
     0.1439E-02    0.5804E-03
  (  1,  7,  5) (  1,  7,  5)


 OUTPUT CONTROL FOR STRESS PERIOD    2   TIME STEP  15
    PRINT BUDGET
    PRINT HEAD FOR ALL LAYERS
    SAVE BUDGET
 UBUDSV SAVING "              ET" ON UNIT 59 AT TIME STEP 15, STRESS PERIOD    2

  HEAD DEP BOUNDS   PERIOD    2   STEP  15
 BOUNDARY      1   LAYER   1   ROW    13   COL     1   RATE   -0.220809    
 BOUNDARY      2   LAYER   1   ROW    14   COL     9   RATE    0.218742    



   STREAM LEAKAGE   PERIOD    2   STEP  15

 LAYER ROW COL. STREAM  RCH.  FLOW INTO    FLOW TO  FLOW OUT OF  OVRLND.   DIRECT    STREAM    STREAM    STREAM    STREAM  STREAMBED  STREAMBED
                SEG.NO.  NO.  STRM. RCH.   AQUIFER   STRM. RCH.  RUNOFF    PRECIP      ET       HEAD      DEPTH     WIDTH  CONDCTNC.   GRADIENT

   1    1    1     1     1    2.500E+01   2.401E+00  2.260E+01  0.00E+00  0.00E+00  0.00E+00  1.09E+03  1.16E+00  1.28E+01  5.77E-01  1.39E+00
   1    2    2     1     2    2.260E+01   3.511E+00  1.909E+01  0.00E+00  0.00E+00  0.00E+00  1.09E+03  1.11E+00  1.22E+01  8.53E-01  1.37E+00
   1    3    3     1     3    1.909E+01   2.753E+00  1.634E+01  0.00E+00  0.00E+00  0.00E+00  1.08E+03  1.06E+00  1.13E+01  6.78E-01  1.35E+00
   1    3    4     1     4    1.634E+01   2.331E+00  1.400E+01  0.00E+00  0.00E+00  0.00E+00  1.08E+03  1.02E+00  1.05E+01  5.80E-01  1.34E+00
   1    4    5     2     1    4.004E+00   2.654E+00  1.350E+00  0.00E+00  0.00E+00  0.00E+00  1.07E+03  4.02E-01  1.20E+01  7.80E-01  1.13E+00
   1    5    6     2     2    1.350E+00   1.350E+00  0.000E+00  0.00E+00  0.00E+00  0.00E+00  1.07E+03  2.10E-01  1.20E+01  6.00E-01  1.07E+00
   1    6    6     2     3    0.000E+00   0.000E+00  0.000E+00  0.00E+00  0.00E+00  0.00E+00  1.06E+03  0.00E+00  1.20E+01  6.00E-01  1.00E+00
   1    7    6     2     4    0.000E+00   0.000E+00  0.000E+00  0.00E+00  0.00E+00  0.00E+00  1.06E+03  0.00E+00  1.20E+01  6.00E-01  1.00E+00
   1    8    6     2     5    0.000E+00   0.000E+00  0.000E+00  0.00E+00  0.00E+00  0.00E+00  1.05E+03  0.00E+00  1.20E+01  6.00E-01  1.00E+00
   1    3    5     3     1    1.000E+01   2.825E+00  7.175E+00  0.00E+00  0.00E+00  0.00E+00  1.08E+03  1.91E+00  9.64E+00  7.23E-01  1.95E+00
   1    3    6     3     2    7.175E+00   2.491E+00  4.684E+00  0.00E+00  0.00E+00  0.00E+00  1.07E+03  1.73E+00  8.91E+00  6.68E-01  1.86E+00
   1    3    7     3     3    4.684E+00   1.972E+00  2.712E+00  0.00E+00  0.00E+00  0.00E+00  1.07E+03  1.55E+00  8.22E+00  5.55E-01  1.78E+00
   1    4    8     3     4    2.712E+00   2.257E+00  4.558E-01  0.00E+00  0.00E+00  0.00E+00  1.07E+03  1.36E+00  7.45E+00  6.71E-01  1.68E+00
   1    5    8     3     5    4.558E-01   4.558E-01  0.000E+00  0.00E+00  0.00E+00  0.00E+00  1.06E+03  1.16E+00  6.65E+00  4.99E-01  1.58E+00
   1    6    8     3     6    0.000E+00   0.000E+00  0.000E+00  0.00E+00  0.00E+00  0.00E+00  1.06E+03  0.00E+00  6.15E+00  1.84E-01  1.00E+00
   1    5   10     4     1    1.000E+01   9.096E-01  9.090E+00  0.00E+00  0.00E+00  0.00E+00  1.08E+03  6.39E-01  1.00E+01  2.50E-01  1.21E+00
   1    5    9     4     2    9.090E+00   1.802E+00  7.289E+00  0.00E+00  0.00E+00  0.00E+00  1.07E+03  6.03E-01  1.00E+01  5.00E-01  1.20E+00
   1    6    8     4     3    7.289E+00   1.235E+00  6.054E+00  0.00E+00  0.00E+00  0.00E+00  1.06E+03  5.28E-01  1.00E+01  3.50E-01  1.18E+00
   1    6    8     5     1    6.054E+00   1.466E+00  4.588E+00  0.00E+00  0.00E+00  0.00E+00  1.06E+03  5.39E-01  1.04E+01  4.14E-01  1.18E+00
   1    7    7     5     2    4.588E+00   1.484E+00  3.104E+00  0.00E+00  0.00E+00  0.00E+00  1.05E+03  4.81E-01  8.53E+00  4.26E-01  1.16E+00
   1    8    7     5     3    3.104E+00   8.249E-01  2.279E+00  0.00E+00  0.00E+00  0.00E+00  1.05E+03  4.24E-01  6.88E+00  2.41E-01  1.14E+00
   1    8    6     5     4    2.279E+00   4.921E-01  1.787E+00  0.00E+00  0.00E+00  0.00E+00  1.05E+03  3.85E-01  5.82E+00  1.45E-01  1.13E+00
   1    9    6     6     1    1.787E+00   1.787E+00  0.000E+00  0.00E+00  0.00E+00  0.00E+00  1.04E+03  2.51E-01  1.20E+01  6.00E-01  1.08E+00
   1   10    7     6     2    0.000E+00   0.000E+00  0.000E+00  0.00E+00  0.00E+00  0.00E+00  1.04E+03  0.00E+00  1.20E+01  6.00E-01  1.00E+00
   1   11    7     6     3    0.000E+00   0.000E+00  0.000E+00  0.00E+00  0.00E+00  0.00E+00  1.03E+03  0.00E+00  1.20E+01  6.00E-01  1.00E+00
   1   12    7     6     4    0.000E+00   0.000E+00  0.000E+00  0.00E+00  0.00E+00  0.00E+00  1.03E+03  0.00E+00  1.20E+01  6.00E-01  1.00E+00
   1   13    7     6     5    0.000E+00  -3.058E-01  3.058E-01  0.00E+00  0.00E+00  0.00E+00  1.03E+03  5.73E-02  1.20E+01  2.40E-01 -4.25E-01
   1   14    9     7     1    1.500E+02   3.461E+00  1.465E+02  0.00E+00  0.00E+00  0.00E+00  1.04E+03  2.28E+00  5.53E+01  5.59E+00  2.06E-01
   1   13    8     7     2    1.465E+02   7.053E+00  1.395E+02  0.00E+00  0.00E+00  0.00E+00  1.03E+03  2.25E+00  5.51E+01  6.13E+00  3.83E-01
   1   13    7     7     3    1.395E+02   1.319E+01  1.263E+02  0.00E+00  0.00E+00  0.00E+00  1.03E+03  2.20E+00  5.49E+01  5.55E+00  7.92E-01
   1   13    6     8     1    1.266E+02   1.277E+01  1.138E+02  0.00E+00  0.00E+00  0.00E+00  1.02E+03  2.59E+00  3.76E+01  3.83E+00  1.11E+00
   1   13    5     8     2    1.138E+02   1.121E+01  1.026E+02  0.00E+00  0.00E+00  0.00E+00  1.02E+03  2.49E+00  3.61E+01  3.68E+00  1.01E+00
   1   13    4     8     3    1.026E+02   7.766E+00  9.486E+01  0.00E+00  0.00E+00  0.00E+00  1.01E+03  2.41E+00  3.49E+01  3.56E+00  7.28E-01
   1   13    3     8     4    9.486E+01   3.962E+00  9.089E+01  0.00E+00  0.00E+00  0.00E+00  1.01E+03  2.35E+00  3.41E+01  3.48E+00  3.80E-01
   1   13    2     8     5    9.089E+01   8.732E-01  9.002E+01  0.00E+00  0.00E+00  0.00E+00  9.99E+02  2.33E+00  3.38E+01  3.44E+00  8.45E-02
   1   13    1     8     6    9.002E+01   7.952E-01  8.923E+01  0.00E+00  0.00E+00  0.00E+00  9.94E+02  2.32E+00  3.37E+01  2.06E+00  1.29E-01



1
              HEAD IN LAYER   1 AT END OF TIME STEP  15 IN STRESS PERIOD    2
  ---------------------------------------------------------------------------

           1       2       3       4       5       6       7       8       9      10
 ...................................................................................
   1  1056.04 1033.14 6999.00 6999.00 6999.00 6999.00 6999.00 6999.00 6999.00 6999.00
   2  1035.25 1014.27  995.79 6999.00 6999.00  984.80  987.26  987.91 6999.00 6999.00
   3  6999.00  991.94  983.88  977.70  979.16  981.59  985.12  982.96 6999.00 6999.00
   4   970.10  972.19  972.08  968.99  968.09  966.91  970.12  980.33  974.94 6999.00
   5   961.81  959.37  961.55  963.00  963.28  963.87  964.12  966.63  971.45  979.47
   6   952.18  951.32  955.84  959.93  960.98  961.91  962.92  965.01  966.18  976.47
   7   946.82  947.24  953.97  959.71  961.33  962.50  963.51  962.76  962.88 6999.00
   8  6999.00  947.38  956.02  962.74  964.75  966.13  966.53  962.87  965.77 6999.00
   9  6999.00  955.08  962.97  969.24  971.14  972.73  972.76  970.59  975.02 6999.00
  10  6999.00  967.80  973.71  978.17  979.49  980.79  981.68  982.56  987.84  991.86
  11  6999.00  982.65  987.50  988.60  989.93  991.73  993.48  996.55 1001.14 6999.00
  12   994.15  995.01  999.00  999.40 1002.01 1005.27 1008.67 1015.92 1020.38 6999.00
  13   993.81  998.95 1004.34 1009.60 1015.07 1021.13 1027.24 1033.60 1034.56 6999.00
  14  6999.00 1002.04 1006.11 1010.24 1015.27 1020.93 1027.57 1034.47 1039.24 6999.00
  15  6999.00 6999.00 1008.62 1011.49 1015.42 1018.91 6999.00 6999.00 6999.00 6999.00
1
  VOLUMETRIC BUDGET FOR ENTIRE MODEL AT END OF TIME STEP 15 IN STRESS PERIOD   2
  ------------------------------------------------------------------------------

     CUMULATIVE VOLUMES      L**3       RATES FOR THIS TIME STEP      L**3/T
     ------------------                 ------------------------

           IN:                                      IN:
           ---                                      ---
             STORAGE = 30229710800.0000               STORAGE =       6.5799E-02
       CONSTANT HEAD =           0.0000         CONSTANT HEAD =           0.0000
               WELLS =           0.0000                 WELLS =           0.0000
                  ET =           0.0000                    ET =           0.0000
     HEAD DEP BOUNDS =   353276416.0000       HEAD DEP BOUNDS =           0.2187
            RECHARGE =  2907583740.0000              RECHARGE =           1.7937
      STREAM LEAKAGE =154000900000.0000        STREAM LEAKAGE =          96.0799

            TOTAL IN =187491467000.0000              TOTAL IN =          98.1582

          OUT:                                     OUT:
          ----                                     ----
             STORAGE =  3887230720.0000               STORAGE =          82.7430
       CONSTANT HEAD =           0.0000         CONSTANT HEAD =           0.0000
               WELLS =157787963000.0000                 WELLS =           0.0000
                  ET = 24617205800.0000                    ET =          14.8829
     HEAD DEP BOUNDS =   360817216.0000       HEAD DEP BOUNDS =           0.2208
            RECHARGE =           0.0000              RECHARGE =           0.0000
      STREAM LEAKAGE =   841673920.0000        STREAM LEAKAGE =           0.3058

           TOTAL OUT =187494892000.0000             TOTAL OUT =          98.1526

            IN - OUT =    -3419904.0000              IN - OUT =       5.6217E-03

 PERCENT DISCREPANCY =           0.00     PERCENT DISCREPANCY =           0.01






          TIME SUMMARY AT END OF TIME STEP  15 IN STRESS PERIOD    2
                    SECONDS     MINUTES      HOURS       DAYS        YEARS
                    -----------------------------------------------------------
   TIME STEP LENGTH 5.14816E+06  85803.      1430.0      59.585     0.16314    
 STRESS PERIOD TIME 4.30731E+07 7.17885E+05  11965.      498.53      1.3649    
         TOTAL TIME 1.62095E+09 2.70159E+07 4.50265E+05  18761.      51.365    
1
 
 SOLVING FOR HEAD 
     7 ITERATIONS FOR TIME STEP  16 IN STRESS PERIOD    2

 MAXIMUM HEAD CHANGE FOR EACH ITERATION:

    HEAD CHANGE   HEAD CHANGE   HEAD CHANGE   HEAD CHANGE   HEAD CHANGE
  LAYER,ROW,COL LAYER,ROW,COL LAYER,ROW,COL LAYER,ROW,COL LAYER,ROW,COL
 ----------------------------------------------------------------------
      1.849        0.6304        0.1918        0.4552E-01    0.9769E-02
  (  1,  8,  3) (  1,  7,  5) (  1,  7,  5) (  1,  7,  5) (  1,  7,  5)
     0.1605E-02    0.6853E-03
  (  1,  7,  5) (  1,  7,  5)


 NO OUTPUT CONTROL FOR STRESS PERIOD    2   TIME STEP  16
 
 SOLVING FOR HEAD 
     7 ITERATIONS FOR TIME STEP  17 IN STRESS PERIOD    2

 MAXIMUM HEAD CHANGE FOR EACH ITERATION:

    HEAD CHANGE   HEAD CHANGE   HEAD CHANGE   HEAD CHANGE   HEAD CHANGE
  LAYER,ROW,COL LAYER,ROW,COL LAYER,ROW,COL LAYER,ROW,COL LAYER,ROW,COL
 ----------------------------------------------------------------------
      1.866        0.6731        0.2140        0.5184E-01    0.1120E-01
  (  1,  8,  3) (  1,  7,  5) (  1,  7,  5) (  1,  7,  5) (  1,  7,  5)
     0.1798E-02    0.8131E-03
  (  1,  7,  5) (  1,  7,  5)


 NO OUTPUT CONTROL FOR STRESS PERIOD    2   TIME STEP  17
 
 SOLVING FOR HEAD 
     7 ITERATIONS FOR TIME STEP  18 IN STRESS PERIOD    2

 MAXIMUM HEAD CHANGE FOR EACH ITERATION:

    HEAD CHANGE   HEAD CHANGE   HEAD CHANGE   HEAD CHANGE   HEAD CHANGE
  LAYER,ROW,COL LAYER,ROW,COL LAYER,ROW,COL LAYER,ROW,COL LAYER,ROW,COL
 ----------------------------------------------------------------------
      1.880        0.7189        0.2393        0.5929E-01    0.1290E-01
  (  1,  8,  3) (  1,  7,  5) (  1,  7,  5) (  1,  7,  5) (  1,  7,  5)
     0.2021E-02    0.9685E-03
  (  1,  7,  5) (  1,  7,  5)


 NO OUTPUT CONTROL FOR STRESS PERIOD    2   TIME STEP  18
 
 SOLVING FOR HEAD 
     8 ITERATIONS FOR TIME STEP  19 IN STRESS PERIOD    2

 MAXIMUM HEAD CHANGE FOR EACH ITERATION:

    HEAD CHANGE   HEAD CHANGE   HEAD CHANGE   HEAD CHANGE   HEAD CHANGE
  LAYER,ROW,COL LAYER,ROW,COL LAYER,ROW,COL LAYER,ROW,COL LAYER,ROW,COL
 ----------------------------------------------------------------------
      2.023        0.7672        0.2680        0.6802E-01    0.1492E-01
  (  1,  8,  2) (  1,  7,  5) (  1,  7,  5) (  1,  7,  5) (  1,  7,  5)
     0.2350E-02    0.1157E-02    0.3942E-03
  (  1,  7,  8) (  1,  7,  5) (  1,  7,  5)


 NO OUTPUT CONTROL FOR STRESS PERIOD    2   TIME STEP  19
 
 SOLVING FOR HEAD 
     8 ITERATIONS FOR TIME STEP  20 IN STRESS PERIOD    2

 MAXIMUM HEAD CHANGE FOR EACH ITERATION:

    HEAD CHANGE   HEAD CHANGE   HEAD CHANGE   HEAD CHANGE   HEAD CHANGE
  LAYER,ROW,COL LAYER,ROW,COL LAYER,ROW,COL LAYER,ROW,COL LAYER,ROW,COL
 ----------------------------------------------------------------------
      2.178        0.8174        0.3000        0.7823E-01    0.1731E-01
  (  1,  8,  2) (  1,  7,  5) (  1,  7,  5) (  1,  7,  5) (  1,  7,  5)
     0.2795E-02    0.1384E-02    0.4961E-03
  (  1,  7,  8) (  1,  7,  5) (  1,  7,  5)


 OUTPUT CONTROL FOR STRESS PERIOD    2   TIME STEP  20
    PRINT BUDGET
    PRINT HEAD FOR ALL LAYERS
    SAVE BUDGET
 UBUDSV SAVING "              ET" ON UNIT 59 AT TIME STEP 20, STRESS PERIOD    2

  HEAD DEP BOUNDS   PERIOD    2   STEP  20
 BOUNDARY      1   LAYER   1   ROW    13   COL     1   RATE   -0.225433    
 BOUNDARY      2   LAYER   1   ROW    14   COL     9   RATE    0.218405    



   STREAM LEAKAGE   PERIOD    2   STEP  20

 LAYER ROW COL. STREAM  RCH.  FLOW INTO    FLOW TO  FLOW OUT OF  OVRLND.   DIRECT    STREAM    STREAM    STREAM    STREAM  STREAMBED  STREAMBED
                SEG.NO.  NO.  STRM. RCH.   AQUIFER   STRM. RCH.  RUNOFF    PRECIP      ET       HEAD      DEPTH     WIDTH  CONDCTNC.   GRADIENT

   1    1    1     1     1    2.500E+01   2.401E+00  2.260E+01  0.00E+00  0.00E+00  0.00E+00  1.09E+03  1.16E+00  1.28E+01  5.77E-01  1.39E+00
   1    2    2     1     2    2.260E+01   3.511E+00  1.909E+01  0.00E+00  0.00E+00  0.00E+00  1.09E+03  1.11E+00  1.22E+01  8.53E-01  1.37E+00
   1    3    3     1     3    1.909E+01   2.753E+00  1.634E+01  0.00E+00  0.00E+00  0.00E+00  1.08E+03  1.06E+00  1.13E+01  6.78E-01  1.35E+00
   1    3    4     1     4    1.634E+01   2.331E+00  1.400E+01  0.00E+00  0.00E+00  0.00E+00  1.08E+03  1.02E+00  1.05E+01  5.80E-01  1.34E+00
   1    4    5     2     1    4.004E+00   2.654E+00  1.350E+00  0.00E+00  0.00E+00  0.00E+00  1.07E+03  4.02E-01  1.20E+01  7.80E-01  1.13E+00
   1    5    6     2     2    1.350E+00   1.350E+00  0.000E+00  0.00E+00  0.00E+00  0.00E+00  1.07E+03  2.10E-01  1.20E+01  6.00E-01  1.07E+00
   1    6    6     2     3    0.000E+00   0.000E+00  0.000E+00  0.00E+00  0.00E+00  0.00E+00  1.06E+03  0.00E+00  1.20E+01  6.00E-01  1.00E+00
   1    7    6     2     4    0.000E+00   0.000E+00  0.000E+00  0.00E+00  0.00E+00  0.00E+00  1.06E+03  0.00E+00  1.20E+01  6.00E-01  1.00E+00
   1    8    6     2     5    0.000E+00   0.000E+00  0.000E+00  0.00E+00  0.00E+00  0.00E+00  1.05E+03  0.00E+00  1.20E+01  6.00E-01  1.00E+00
   1    3    5     3     1    1.000E+01   2.825E+00  7.175E+00  0.00E+00  0.00E+00  0.00E+00  1.08E+03  1.91E+00  9.64E+00  7.23E-01  1.95E+00
   1    3    6     3     2    7.175E+00   2.491E+00  4.684E+00  0.00E+00  0.00E+00  0.00E+00  1.07E+03  1.73E+00  8.91E+00  6.68E-01  1.86E+00
   1    3    7     3     3    4.684E+00   1.972E+00  2.712E+00  0.00E+00  0.00E+00  0.00E+00  1.07E+03  1.55E+00  8.22E+00  5.55E-01  1.78E+00
   1    4    8     3     4    2.712E+00   2.257E+00  4.558E-01  0.00E+00  0.00E+00  0.00E+00  1.07E+03  1.36E+00  7.45E+00  6.71E-01  1.68E+00
   1    5    8     3     5    4.558E-01   4.558E-01  0.000E+00  0.00E+00  0.00E+00  0.00E+00  1.06E+03  1.16E+00  6.65E+00  4.99E-01  1.58E+00
   1    6    8     3     6    0.000E+00   0.000E+00  0.000E+00  0.00E+00  0.00E+00  0.00E+00  1.06E+03  0.00E+00  6.15E+00  1.84E-01  1.00E+00
   1    5   10     4     1    1.000E+01   9.096E-01  9.090E+00  0.00E+00  0.00E+00  0.00E+00  1.08E+03  6.39E-01  1.00E+01  2.50E-01  1.21E+00
   1    5    9     4     2    9.090E+00   1.802E+00  7.289E+00  0.00E+00  0.00E+00  0.00E+00  1.07E+03  6.03E-01  1.00E+01  5.00E-01  1.20E+00
   1    6    8     4     3    7.289E+00   1.235E+00  6.054E+00  0.00E+00  0.00E+00  0.00E+00  1.06E+03  5.28E-01  1.00E+01  3.50E-01  1.18E+00
   1    6    8     5     1    6.054E+00   1.466E+00  4.588E+00  0.00E+00  0.00E+00  0.00E+00  1.06E+03  5.39E-01  1.04E+01  4.14E-01  1.18E+00
   1    7    7     5     2    4.588E+00   1.484E+00  3.104E+00  0.00E+00  0.00E+00  0.00E+00  1.05E+03  4.81E-01  8.53E+00  4.26E-01  1.16E+00
   1    8    7     5     3    3.104E+00   8.249E-01  2.279E+00  0.00E+00  0.00E+00  0.00E+00  1.05E+03  4.24E-01  6.88E+00  2.41E-01  1.14E+00
   1    8    6     5     4    2.279E+00   4.921E-01  1.787E+00  0.00E+00  0.00E+00  0.00E+00  1.05E+03  3.85E-01  5.82E+00  1.45E-01  1.13E+00
   1    9    6     6     1    1.787E+00   1.787E+00  0.000E+00  0.00E+00  0.00E+00  0.00E+00  1.04E+03  2.51E-01  1.20E+01  6.00E-01  1.08E+00
   1   10    7     6     2    0.000E+00   0.000E+00  0.000E+00  0.00E+00  0.00E+00  0.00E+00  1.04E+03  0.00E+00  1.20E+01  6.00E-01  1.00E+00
   1   11    7     6     3    0.000E+00   0.000E+00  0.000E+00  0.00E+00  0.00E+00  0.00E+00  1.03E+03  0.00E+00  1.20E+01  6.00E-01  1.00E+00
   1   12    7     6     4    0.000E+00   0.000E+00  0.000E+00  0.00E+00  0.00E+00  0.00E+00  1.03E+03  0.00E+00  1.20E+01  6.00E-01  1.00E+00
   1   13    7     6     5    0.000E+00  -3.771E-01  3.771E-01  0.00E+00  0.00E+00  0.00E+00  1.03E+03  6.51E-02  1.20E+01  2.40E-01 -5.24E-01
   1   14    9     7     1    1.500E+02   3.412E+00  1.466E+02  0.00E+00  0.00E+00  0.00E+00  1.04E+03  2.28E+00  5.53E+01  5.59E+00  2.03E-01
   1   13    8     7     2    1.466E+02   6.622E+00  1.400E+02  0.00E+00  0.00E+00  0.00E+00  1.03E+03  2.26E+00  5.51E+01  6.13E+00  3.60E-01
   1   13    7     7     3    1.400E+02   1.155E+01  1.284E+02  0.00E+00  0.00E+00  0.00E+00  1.03E+03  2.21E+00  5.49E+01  5.55E+00  6.93E-01
   1   13    6     8     1    1.288E+02   1.088E+01  1.179E+02  0.00E+00  0.00E+00  0.00E+00  1.02E+03  2.62E+00  3.80E+01  3.87E+00  9.38E-01
   1   13    5     8     2    1.179E+02   9.111E+00  1.088E+02  0.00E+00  0.00E+00  0.00E+00  1.02E+03  2.54E+00  3.68E+01  3.75E+00  8.11E-01
   1   13    4     8     3    1.088E+02   5.983E+00  1.028E+02  0.00E+00  0.00E+00  0.00E+00  1.01E+03  2.47E+00  3.58E+01  3.65E+00  5.46E-01
   1   13    3     8     4    1.028E+02   2.814E+00  1.000E+02  0.00E+00  0.00E+00  0.00E+00  1.01E+03  2.43E+00  3.53E+01  3.59E+00  2.61E-01
   1   13    2     8     5    1.000E+02   5.840E-01  9.942E+01  0.00E+00  0.00E+00  0.00E+00  9.99E+02  2.42E+00  3.50E+01  3.57E+00  5.45E-02
   1   13    1     8     6    9.942E+01   7.554E-01  9.866E+01  0.00E+00  0.00E+00  0.00E+00  9.94E+02  2.41E+00  3.50E+01  2.14E+00  1.18E-01



1
              HEAD IN LAYER   1 AT END OF TIME STEP  20 IN STRESS PERIOD    2
  ---------------------------------------------------------------------------

           1       2       3       4       5       6       7       8       9      10
 ...................................................................................
   1  1056.00 1033.56 6999.00 6999.00 6999.00 6999.00 6999.00 6999.00 6999.00 6999.00
   2  1035.42 1016.28  999.83 6999.00 6999.00  986.68  988.42  988.24 6999.00 6999.00
   3  6999.00  995.87  990.40  985.67  987.62  989.04  990.57  986.12 6999.00 6999.00
   4   971.33  977.41  980.11  978.52  978.09  976.82  978.53  986.26  976.92 6999.00
   5   963.66  966.79  971.55  973.87  974.21  974.49  974.09  975.36  977.69  981.81
   6   954.44  960.80  967.54  971.83  972.71  973.23  973.58  974.75  972.73  976.65
   7   949.22  958.33  966.80  972.20  973.49  974.24  974.67  973.24  965.07 6999.00
   8  6999.00  959.48  969.20  975.09  976.67  977.69  977.75  972.96  967.37 6999.00
   9  6999.00  966.15  974.96  980.42  981.96  983.26  983.01  979.34  977.21 6999.00
  10  6999.00  976.39  983.19  987.31  988.49  989.59  990.18  989.48  990.82  992.42
  11  6999.00  987.95  993.42  995.12  996.50  998.18  999.66 1001.46 1003.66 6999.00
  12   994.95  997.06 1001.68 1002.93 1005.70 1008.89 1012.02 1018.17 1021.56 6999.00
  13   993.93  999.13 1004.77 1010.21 1015.73 1021.68 1027.55 1033.68 1034.70 6999.00
  14  6999.00 1002.25 1006.51 1010.77 1015.82 1021.38 1027.86 1034.56 1039.25 6999.00
  15  6999.00 6999.00 1008.81 1011.73 1015.69 1019.14 6999.00 6999.00 6999.00 6999.00
1
  VOLUMETRIC BUDGET FOR ENTIRE MODEL AT END OF TIME STEP 20 IN STRESS PERIOD   2
  ------------------------------------------------------------------------------

     CUMULATIVE VOLUMES      L**3       RATES FOR THIS TIME STEP      L**3/T
     ------------------                 ------------------------

           IN:                                      IN:
           ---                                      ---
             STORAGE = 30230089700.0000               STORAGE =           0.0000
       CONSTANT HEAD =           0.0000         CONSTANT HEAD =           0.0000
               WELLS =           0.0000                 WELLS =           0.0000
                  ET =           0.0000                    ET =           0.0000
     HEAD DEP BOUNDS =   360832384.0000       HEAD DEP BOUNDS =           0.2184
            RECHARGE =  2969599490.0000              RECHARGE =           1.7937
      STREAM LEAKAGE =157119578000.0000        STREAM LEAKAGE =          86.7147

            TOTAL IN =190680105000.0000              TOTAL IN =          88.7268

          OUT:                                     OUT:
          ----                                     ----
             STORAGE =  6531063810.0000               STORAGE =          72.7706
       CONSTANT HEAD =           0.0000         CONSTANT HEAD =           0.0000
               WELLS =157787963000.0000                 WELLS =           0.0000
                  ET = 25141856300.0000                    ET =          15.3464
     HEAD DEP BOUNDS =   368551008.0000       HEAD DEP BOUNDS =           0.2254
            RECHARGE =           0.0000              RECHARGE =           0.0000
      STREAM LEAKAGE =   853787264.0000        STREAM LEAKAGE =           0.3771

           TOTAL OUT =190683218000.0000             TOTAL OUT =          88.7194

            IN - OUT =    -3122016.0000              IN - OUT =       7.3692E-03

 PERCENT DISCREPANCY =           0.00     PERCENT DISCREPANCY =           0.01






          TIME SUMMARY AT END OF TIME STEP  20 IN STRESS PERIOD    2
                    SECONDS     MINUTES      HOURS       DAYS        YEARS
                    -----------------------------------------------------------
   TIME STEP LENGTH 8.29117E+06 1.38186E+05  2303.1      95.963     0.26273    
 STRESS PERIOD TIME 7.76461E+07 1.29410E+06  21568.      898.68      2.4605    
         TOTAL TIME 1.65553E+09 2.75921E+07 4.59868E+05  19161.      52.460    
1
 
 SOLVING FOR HEAD 
     8 ITERATIONS FOR TIME STEP  21 IN STRESS PERIOD    2

 MAXIMUM HEAD CHANGE FOR EACH ITERATION:

    HEAD CHANGE   HEAD CHANGE   HEAD CHANGE   HEAD CHANGE   HEAD CHANGE
  LAYER,ROW,COL LAYER,ROW,COL LAYER,ROW,COL LAYER,ROW,COL LAYER,ROW,COL
 ----------------------------------------------------------------------
      2.314        0.8693        0.3394        0.9009E-01    0.2021E-01
  (  1,  8,  2) (  1,  6,  5) (  1,  6,  5) (  1,  7,  5) (  1,  6,  5)
     0.3312E-02    0.1674E-02    0.6260E-03
  (  1,  7,  8) (  1,  6,  5) (  1,  7,  5)


 NO OUTPUT CONTROL FOR STRESS PERIOD    2   TIME STEP  21
 
 SOLVING FOR HEAD 
     8 ITERATIONS FOR TIME STEP  22 IN STRESS PERIOD    2

 MAXIMUM HEAD CHANGE FOR EACH ITERATION:

    HEAD CHANGE   HEAD CHANGE   HEAD CHANGE   HEAD CHANGE   HEAD CHANGE
  LAYER,ROW,COL LAYER,ROW,COL LAYER,ROW,COL LAYER,ROW,COL LAYER,ROW,COL
 ----------------------------------------------------------------------
      2.427        0.9303        0.3832        0.1038        0.2377E-01
  (  1,  8,  2) (  1,  6,  5) (  1,  6,  5) (  1,  7,  5) (  1,  6,  5)
     0.3902E-02    0.2024E-02    0.7901E-03
  (  1,  7,  8) (  1,  6,  5) (  1,  7,  5)


 NO OUTPUT CONTROL FOR STRESS PERIOD    2   TIME STEP  22
 
 SOLVING FOR HEAD 
     8 ITERATIONS FOR TIME STEP  23 IN STRESS PERIOD    2

 MAXIMUM HEAD CHANGE FOR EACH ITERATION:

    HEAD CHANGE   HEAD CHANGE   HEAD CHANGE   HEAD CHANGE   HEAD CHANGE
  LAYER,ROW,COL LAYER,ROW,COL LAYER,ROW,COL LAYER,ROW,COL LAYER,ROW,COL
 ----------------------------------------------------------------------
      2.514        0.9908        0.4313        0.1195        0.2796E-01
  (  1,  8,  2) (  1,  6,  5) (  1,  6,  5) (  1,  7,  5) (  1,  6,  5)
     0.4561E-02    0.2440E-02    0.9967E-03
  (  1,  7,  8) (  1,  6,  5) (  1,  7,  5)


 NO OUTPUT CONTROL FOR STRESS PERIOD    2   TIME STEP  23
 
 SOLVING FOR HEAD 
     9 ITERATIONS FOR TIME STEP  24 IN STRESS PERIOD    2

 MAXIMUM HEAD CHANGE FOR EACH ITERATION:

    HEAD CHANGE   HEAD CHANGE   HEAD CHANGE   HEAD CHANGE   HEAD CHANGE
  LAYER,ROW,COL LAYER,ROW,COL LAYER,ROW,COL LAYER,ROW,COL LAYER,ROW,COL
 ----------------------------------------------------------------------
      2.573         1.050        0.4835        0.1375        0.3287E-01
  (  1,  8,  2) (  1,  6,  5) (  1,  6,  5) (  1,  7,  5) (  1,  6,  5)
     0.5282E-02    0.2931E-02    0.1255E-02    0.3762E-03
  (  1,  7,  8) (  1,  6,  5) (  1,  7,  5) (  1,  6,  5)


 NO OUTPUT CONTROL FOR STRESS PERIOD    2   TIME STEP  24
 
 SOLVING FOR HEAD 
     9 ITERATIONS FOR TIME STEP  25 IN STRESS PERIOD    2

 MAXIMUM HEAD CHANGE FOR EACH ITERATION:

    HEAD CHANGE   HEAD CHANGE   HEAD CHANGE   HEAD CHANGE   HEAD CHANGE
  LAYER,ROW,COL LAYER,ROW,COL LAYER,ROW,COL LAYER,ROW,COL LAYER,ROW,COL
 ----------------------------------------------------------------------
      2.606         1.105        0.5395        0.1577        0.3859E-01
  (  1,  8,  2) (  1,  6,  5) (  1,  6,  5) (  1,  7,  5) (  1,  6,  5)
     0.6062E-02    0.3503E-02    0.1574E-02    0.4934E-03
  (  1,  7,  8) (  1,  6,  5) (  1,  7,  5) (  1,  6,  5)


 OUTPUT CONTROL FOR STRESS PERIOD    2   TIME STEP  25
    PRINT BUDGET
    PRINT HEAD FOR ALL LAYERS
    SAVE BUDGET
 UBUDSV SAVING "              ET" ON UNIT 59 AT TIME STEP 25, STRESS PERIOD    2

  HEAD DEP BOUNDS   PERIOD    2   STEP  25
 BOUNDARY      1   LAYER   1   ROW    13   COL     1   RATE   -0.230637    
 BOUNDARY      2   LAYER   1   ROW    14   COL     9   RATE    0.217791    



   STREAM LEAKAGE   PERIOD    2   STEP  25

 LAYER ROW COL. STREAM  RCH.  FLOW INTO    FLOW TO  FLOW OUT OF  OVRLND.   DIRECT    STREAM    STREAM    STREAM    STREAM  STREAMBED  STREAMBED
                SEG.NO.  NO.  STRM. RCH.   AQUIFER   STRM. RCH.  RUNOFF    PRECIP      ET       HEAD      DEPTH     WIDTH  CONDCTNC.   GRADIENT

   1    1    1     1     1    2.500E+01   2.401E+00  2.260E+01  0.00E+00  0.00E+00  0.00E+00  1.09E+03  1.16E+00  1.28E+01  5.77E-01  1.39E+00
   1    2    2     1     2    2.260E+01   3.511E+00  1.909E+01  0.00E+00  0.00E+00  0.00E+00  1.09E+03  1.11E+00  1.22E+01  8.53E-01  1.37E+00
   1    3    3     1     3    1.909E+01   2.753E+00  1.634E+01  0.00E+00  0.00E+00  0.00E+00  1.08E+03  1.06E+00  1.13E+01  6.78E-01  1.35E+00
   1    3    4     1     4    1.634E+01   2.331E+00  1.400E+01  0.00E+00  0.00E+00  0.00E+00  1.08E+03  1.02E+00  1.05E+01  5.80E-01  1.34E+00
   1    4    5     2     1    4.004E+00   2.654E+00  1.350E+00  0.00E+00  0.00E+00  0.00E+00  1.07E+03  4.02E-01  1.20E+01  7.80E-01  1.13E+00
   1    5    6     2     2    1.350E+00   1.350E+00  0.000E+00  0.00E+00  0.00E+00  0.00E+00  1.07E+03  2.10E-01  1.20E+01  6.00E-01  1.07E+00
   1    6    6     2     3    0.000E+00   0.000E+00  0.000E+00  0.00E+00  0.00E+00  0.00E+00  1.06E+03  0.00E+00  1.20E+01  6.00E-01  1.00E+00
   1    7    6     2     4    0.000E+00   0.000E+00  0.000E+00  0.00E+00  0.00E+00  0.00E+00  1.06E+03  0.00E+00  1.20E+01  6.00E-01  1.00E+00
   1    8    6     2     5    0.000E+00   0.000E+00  0.000E+00  0.00E+00  0.00E+00  0.00E+00  1.05E+03  0.00E+00  1.20E+01  6.00E-01  1.00E+00
   1    3    5     3     1    1.000E+01   2.825E+00  7.175E+00  0.00E+00  0.00E+00  0.00E+00  1.08E+03  1.91E+00  9.64E+00  7.23E-01  1.95E+00
   1    3    6     3     2    7.175E+00   2.491E+00  4.684E+00  0.00E+00  0.00E+00  0.00E+00  1.07E+03  1.73E+00  8.91E+00  6.68E-01  1.86E+00
   1    3    7     3     3    4.684E+00   1.972E+00  2.712E+00  0.00E+00  0.00E+00  0.00E+00  1.07E+03  1.55E+00  8.22E+00  5.55E-01  1.78E+00
   1    4    8     3     4    2.712E+00   2.257E+00  4.558E-01  0.00E+00  0.00E+00  0.00E+00  1.07E+03  1.36E+00  7.45E+00  6.71E-01  1.68E+00
   1    5    8     3     5    4.558E-01   4.558E-01  0.000E+00  0.00E+00  0.00E+00  0.00E+00  1.06E+03  1.16E+00  6.65E+00  4.99E-01  1.58E+00
   1    6    8     3     6    0.000E+00   0.000E+00  0.000E+00  0.00E+00  0.00E+00  0.00E+00  1.06E+03  0.00E+00  6.15E+00  1.84E-01  1.00E+00
   1    5   10     4     1    1.000E+01   9.096E-01  9.090E+00  0.00E+00  0.00E+00  0.00E+00  1.08E+03  6.39E-01  1.00E+01  2.50E-01  1.21E+00
   1    5    9     4     2    9.090E+00   1.802E+00  7.289E+00  0.00E+00  0.00E+00  0.00E+00  1.07E+03  6.03E-01  1.00E+01  5.00E-01  1.20E+00
   1    6    8     4     3    7.289E+00   1.235E+00  6.054E+00  0.00E+00  0.00E+00  0.00E+00  1.06E+03  5.28E-01  1.00E+01  3.50E-01  1.18E+00
   1    6    8     5     1    6.054E+00   1.466E+00  4.588E+00  0.00E+00  0.00E+00  0.00E+00  1.06E+03  5.39E-01  1.04E+01  4.14E-01  1.18E+00
   1    7    7     5     2    4.588E+00   1.484E+00  3.104E+00  0.00E+00  0.00E+00  0.00E+00  1.05E+03  4.81E-01  8.53E+00  4.26E-01  1.16E+00
   1    8    7     5     3    3.104E+00   8.249E-01  2.279E+00  0.00E+00  0.00E+00  0.00E+00  1.05E+03  4.24E-01  6.88E+00  2.41E-01  1.14E+00
   1    8    6     5     4    2.279E+00   4.921E-01  1.787E+00  0.00E+00  0.00E+00  0.00E+00  1.05E+03  3.85E-01  5.82E+00  1.45E-01  1.13E+00
   1    9    6     6     1    1.787E+00   1.787E+00  0.000E+00  0.00E+00  0.00E+00  0.00E+00  1.04E+03  2.51E-01  1.20E+01  6.00E-01  1.08E+00
   1   10    7     6     2    0.000E+00   0.000E+00  0.000E+00  0.00E+00  0.00E+00  0.00E+00  1.04E+03  0.00E+00  1.20E+01  6.00E-01  1.00E+00
   1   11    7     6     3    0.000E+00   0.000E+00  0.000E+00  0.00E+00  0.00E+00  0.00E+00  1.03E+03  0.00E+00  1.20E+01  6.00E-01  1.00E+00
   1   12    7     6     4    0.000E+00   0.000E+00  0.000E+00  0.00E+00  0.00E+00  0.00E+00  1.03E+03  0.00E+00  1.20E+01  6.00E-01  1.00E+00
   1   13    7     6     5    0.000E+00  -4.569E-01  4.569E-01  0.00E+00  0.00E+00  0.00E+00  1.03E+03  7.30E-02  1.20E+01  2.40E-01 -6.35E-01
   1   14    9     7     1    1.500E+02   3.323E+00  1.467E+02  0.00E+00  0.00E+00  0.00E+00  1.04E+03  2.28E+00  5.53E+01  5.59E+00  1.98E-01
   1   13    8     7     2    1.467E+02   6.061E+00  1.406E+02  0.00E+00  0.00E+00  0.00E+00  1.03E+03  2.26E+00  5.52E+01  6.14E+00  3.29E-01
   1   13    7     7     3    1.406E+02   9.713E+00  1.309E+02  0.00E+00  0.00E+00  0.00E+00  1.03E+03  2.21E+00  5.50E+01  5.56E+00  5.83E-01
   1   13    6     8     1    1.314E+02   8.827E+00  1.225E+02  0.00E+00  0.00E+00  0.00E+00  1.02E+03  2.65E+00  3.84E+01  3.91E+00  7.53E-01
   1   13    5     8     2    1.225E+02   6.852E+00  1.157E+02  0.00E+00  0.00E+00  0.00E+00  1.02E+03  2.58E+00  3.75E+01  3.82E+00  5.98E-01
   1   13    4     8     3    1.157E+02   4.060E+00  1.116E+02  0.00E+00  0.00E+00  0.00E+00  1.01E+03  2.54E+00  3.68E+01  3.75E+00  3.61E-01
   1   13    3     8     4    1.116E+02   1.551E+00  1.101E+02  0.00E+00  0.00E+00  0.00E+00  1.01E+03  2.51E+00  3.65E+01  3.72E+00  1.39E-01
   1   13    2     8     5    1.101E+02   2.247E-01  1.098E+02  0.00E+00  0.00E+00  0.00E+00  9.99E+02  2.51E+00  3.64E+01  3.70E+00  2.02E-02
   1   13    1     8     6    1.098E+02   6.857E-01  1.092E+02  0.00E+00  0.00E+00  0.00E+00  9.94E+02  2.50E+00  3.63E+01  2.22E+00  1.03E-01



1
              HEAD IN LAYER   1 AT END OF TIME STEP  25 IN STRESS PERIOD    2
  ---------------------------------------------------------------------------

           1       2       3       4       5       6       7       8       9      10
 ...................................................................................
   1  1056.60 1036.11 6999.00 6999.00 6999.00 6999.00 6999.00 6999.00 6999.00 6999.00
   2  1037.27 1022.40 1008.93 6999.00 6999.00  993.10  993.49  991.56 6999.00 6999.00
   3  6999.00 1004.96 1002.03  998.54 1000.89 1001.40 1001.29  994.87 6999.00 6999.00
   4   976.81  988.12  993.02  992.49  992.41  991.16  991.96  997.61  984.83 6999.00
   5   970.23  979.47  985.79  988.52  988.94  989.14  988.49  989.07  989.65  989.72
   6   962.03  975.09  982.62  986.74  987.54  987.96  988.14  988.97  985.18  978.72
   7   957.40  973.89  982.18  986.87  987.96  988.61  989.00  987.64  973.44 6999.00
   8  6999.00  976.43  984.19  988.86  990.15  991.06  991.16  986.78  973.51 6999.00
   9  6999.00  981.50  988.24  992.47  993.76  994.97  994.71  991.07  983.71 6999.00
  10  6999.00  988.18  993.62  997.01  998.13  999.17  999.67  998.46  996.76  994.96
  11  6999.00  995.15  999.90 1001.98 1003.46 1005.13 1006.50 1007.74 1008.46 6999.00
  12   996.26  999.69 1004.55 1006.64 1009.61 1012.79 1015.73 1021.02 1023.70 6999.00
  13   994.07  999.32 1005.22 1010.83 1016.41 1022.26 1027.89 1033.77 1034.97 6999.00
  14  6999.00 1002.60 1007.03 1011.40 1016.48 1021.95 1028.22 1034.69 1039.27 6999.00
  15  6999.00 6999.00 1009.25 1012.25 1016.23 1019.65 6999.00 6999.00 6999.00 6999.00
1
  VOLUMETRIC BUDGET FOR ENTIRE MODEL AT END OF TIME STEP 25 IN STRESS PERIOD   2
  ------------------------------------------------------------------------------

     CUMULATIVE VOLUMES      L**3       RATES FOR THIS TIME STEP      L**3/T
     ------------------                 ------------------------

           IN:                                      IN:
           ---                                      ---
             STORAGE = 30230089700.0000               STORAGE =           0.0000
       CONSTANT HEAD =           0.0000         CONSTANT HEAD =           0.0000
               WELLS =           0.0000                 WELLS =           0.0000
                  ET =           0.0000                    ET =           0.0000
     HEAD DEP BOUNDS =   372972448.0000       HEAD DEP BOUNDS =           0.2178
            RECHARGE =  3069475840.0000              RECHARGE =           1.7937
      STREAM LEAKAGE =161581548000.0000        STREAM LEAKAGE =          76.2976

            TOTAL IN =195254092000.0000              TOTAL IN =          78.3091

          OUT:                                     OUT:
          ----                                     ----
             STORAGE = 10196321300.0000               STORAGE =          61.7806
       CONSTANT HEAD =           0.0000         CONSTANT HEAD =           0.0000
               WELLS =157787963000.0000                 WELLS =           0.0000
                  ET = 26013808600.0000                    ET =          15.8405
     HEAD DEP BOUNDS =   381286464.0000       HEAD DEP BOUNDS =           0.2306
            RECHARGE =           0.0000              RECHARGE =           0.0000
      STREAM LEAKAGE =   877590208.0000        STREAM LEAKAGE =           0.4569

           TOTAL OUT =195256975000.0000             TOTAL OUT =          78.3086

            IN - OUT =    -2884448.0000              IN - OUT =       5.4860E-04

 PERCENT DISCREPANCY =           0.00     PERCENT DISCREPANCY =           0.00






          TIME SUMMARY AT END OF TIME STEP  25 IN STRESS PERIOD    2
                    SECONDS     MINUTES      HOURS       DAYS        YEARS
                    -----------------------------------------------------------
   TIME STEP LENGTH 1.33530E+07 2.22550E+05  3709.2      154.55     0.42313    
 STRESS PERIOD TIME 1.33326E+08 2.22211E+06  37035.      1543.1      4.2249    
         TOTAL TIME 1.71121E+09 2.85201E+07 4.75335E+05  19806.      54.225    
1
 
 SOLVING FOR HEAD 
     9 ITERATIONS FOR TIME STEP  26 IN STRESS PERIOD    2

 MAXIMUM HEAD CHANGE FOR EACH ITERATION:

    HEAD CHANGE   HEAD CHANGE   HEAD CHANGE   HEAD CHANGE   HEAD CHANGE
  LAYER,ROW,COL LAYER,ROW,COL LAYER,ROW,COL LAYER,ROW,COL LAYER,ROW,COL
 ----------------------------------------------------------------------
      2.613         1.157        0.5987        0.1805        0.4522E-01
  (  1,  8,  2) (  1,  6,  5) (  1,  6,  5) (  1,  7,  5) (  1,  6,  5)
     0.6909E-02    0.4164E-02    0.1965E-02    0.6451E-03
  (  1,  7,  8) (  1,  6,  5) (  1,  7,  5) (  1,  6,  5)


 NO OUTPUT CONTROL FOR STRESS PERIOD    2   TIME STEP  26
 
 SOLVING FOR HEAD 
     9 ITERATIONS FOR TIME STEP  27 IN STRESS PERIOD    2

 MAXIMUM HEAD CHANGE FOR EACH ITERATION:

    HEAD CHANGE   HEAD CHANGE   HEAD CHANGE   HEAD CHANGE   HEAD CHANGE
  LAYER,ROW,COL LAYER,ROW,COL LAYER,ROW,COL LAYER,ROW,COL LAYER,ROW,COL
 ----------------------------------------------------------------------
      2.599         1.203        0.6607        0.2061        0.5289E-01
  (  1,  8,  2) (  1,  6,  5) (  1,  6,  5) (  1,  6,  5) (  1,  6,  5)
     0.7842E-02    0.4925E-02    0.2444E-02    0.8411E-03
  (  1,  7,  8) (  1,  6,  5) (  1,  7,  5) (  1,  6,  5)


 NO OUTPUT CONTROL FOR STRESS PERIOD    2   TIME STEP  27
 
 SOLVING FOR HEAD 
    10 ITERATIONS FOR TIME STEP  28 IN STRESS PERIOD    2

 MAXIMUM HEAD CHANGE FOR EACH ITERATION:

    HEAD CHANGE   HEAD CHANGE   HEAD CHANGE   HEAD CHANGE   HEAD CHANGE
  LAYER,ROW,COL LAYER,ROW,COL LAYER,ROW,COL LAYER,ROW,COL LAYER,ROW,COL
 ----------------------------------------------------------------------
      2.909         1.242        0.7263        0.2346        0.6172E-01
  (  1,  7,  1) (  1,  6,  5) (  1,  5,  5) (  1,  6,  5) (  1,  6,  5)
     0.9705E-02    0.5813E-02    0.3015E-02    0.1091E-02    0.2564E-03
  (  1,  2,  3) (  1,  5,  5) (  1,  7,  5) (  1,  6,  5) (  1,  7,  5)


 NO OUTPUT CONTROL FOR STRESS PERIOD    2   TIME STEP  28
 
 SOLVING FOR HEAD 
    10 ITERATIONS FOR TIME STEP  29 IN STRESS PERIOD    2

 MAXIMUM HEAD CHANGE FOR EACH ITERATION:

    HEAD CHANGE   HEAD CHANGE   HEAD CHANGE   HEAD CHANGE   HEAD CHANGE
  LAYER,ROW,COL LAYER,ROW,COL LAYER,ROW,COL LAYER,ROW,COL LAYER,ROW,COL
 ----------------------------------------------------------------------
      3.304         1.277        0.7983        0.2660        0.7350E-01
  (  1,  7,  1) (  1,  5,  5) (  1,  5,  5) (  1,  6,  5) (  1,  3,  4)
     0.1198E-01    0.7114E-02    0.3703E-02    0.1412E-02    0.3318E-03
  (  1,  2,  3) (  1,  3,  4) (  1,  7,  5) (  1,  6,  5) (  1,  7,  5)


 NO OUTPUT CONTROL FOR STRESS PERIOD    2   TIME STEP  29
 
 SOLVING FOR HEAD 
    10 ITERATIONS FOR TIME STEP  30 IN STRESS PERIOD    2

 MAXIMUM HEAD CHANGE FOR EACH ITERATION:

    HEAD CHANGE   HEAD CHANGE   HEAD CHANGE   HEAD CHANGE   HEAD CHANGE
  LAYER,ROW,COL LAYER,ROW,COL LAYER,ROW,COL LAYER,ROW,COL LAYER,ROW,COL
 ----------------------------------------------------------------------
      3.666         1.314        0.8721        0.3005        0.9050E-01
  (  1,  7,  1) (  1,  6,  8) (  1,  5,  5) (  1,  6,  5) (  1,  2,  3)
     0.1465E-01    0.8666E-02    0.4529E-02    0.1823E-02    0.4311E-03
  (  1,  2,  3) (  1,  3,  4) (  1,  7,  5) (  1,  6,  5) (  1,  7,  5)


 OUTPUT CONTROL FOR STRESS PERIOD    2   TIME STEP  30
    PRINT BUDGET
    PRINT HEAD FOR ALL LAYERS
    SAVE BUDGET
 UBUDSV SAVING "              ET" ON UNIT 59 AT TIME STEP 30, STRESS PERIOD    2

  HEAD DEP BOUNDS   PERIOD    2   STEP  30
 BOUNDARY      1   LAYER   1   ROW    13   COL     1   RATE   -0.235889    
 BOUNDARY      2   LAYER   1   ROW    14   COL     9   RATE    0.217106    



   STREAM LEAKAGE   PERIOD    2   STEP  30

 LAYER ROW COL. STREAM  RCH.  FLOW INTO    FLOW TO  FLOW OUT OF  OVRLND.   DIRECT    STREAM    STREAM    STREAM    STREAM  STREAMBED  STREAMBED
                SEG.NO.  NO.  STRM. RCH.   AQUIFER   STRM. RCH.  RUNOFF    PRECIP      ET       HEAD      DEPTH     WIDTH  CONDCTNC.   GRADIENT

   1    1    1     1     1    2.500E+01   2.401E+00  2.260E+01  0.00E+00  0.00E+00  0.00E+00  1.09E+03  1.16E+00  1.28E+01  5.77E-01  1.39E+00
   1    2    2     1     2    2.260E+01   3.511E+00  1.909E+01  0.00E+00  0.00E+00  0.00E+00  1.09E+03  1.11E+00  1.22E+01  8.53E-01  1.37E+00
   1    3    3     1     3    1.909E+01   2.753E+00  1.634E+01  0.00E+00  0.00E+00  0.00E+00  1.08E+03  1.06E+00  1.13E+01  6.78E-01  1.35E+00
   1    3    4     1     4    1.634E+01   2.331E+00  1.400E+01  0.00E+00  0.00E+00  0.00E+00  1.08E+03  1.02E+00  1.05E+01  5.80E-01  1.34E+00
   1    4    5     2     1    4.004E+00   2.654E+00  1.350E+00  0.00E+00  0.00E+00  0.00E+00  1.07E+03  4.02E-01  1.20E+01  7.80E-01  1.13E+00
   1    5    6     2     2    1.350E+00   1.350E+00  0.000E+00  0.00E+00  0.00E+00  0.00E+00  1.07E+03  2.10E-01  1.20E+01  6.00E-01  1.07E+00
   1    6    6     2     3    0.000E+00   0.000E+00  0.000E+00  0.00E+00  0.00E+00  0.00E+00  1.06E+03  0.00E+00  1.20E+01  6.00E-01  1.00E+00
   1    7    6     2     4    0.000E+00   0.000E+00  0.000E+00  0.00E+00  0.00E+00  0.00E+00  1.06E+03  0.00E+00  1.20E+01  6.00E-01  1.00E+00
   1    8    6     2     5    0.000E+00   0.000E+00  0.000E+00  0.00E+00  0.00E+00  0.00E+00  1.05E+03  0.00E+00  1.20E+01  6.00E-01  1.00E+00
   1    3    5     3     1    1.000E+01   2.825E+00  7.175E+00  0.00E+00  0.00E+00  0.00E+00  1.08E+03  1.91E+00  9.64E+00  7.23E-01  1.95E+00
   1    3    6     3     2    7.175E+00   2.491E+00  4.684E+00  0.00E+00  0.00E+00  0.00E+00  1.07E+03  1.73E+00  8.91E+00  6.68E-01  1.86E+00
   1    3    7     3     3    4.684E+00   1.972E+00  2.712E+00  0.00E+00  0.00E+00  0.00E+00  1.07E+03  1.55E+00  8.22E+00  5.55E-01  1.78E+00
   1    4    8     3     4    2.712E+00   2.257E+00  4.558E-01  0.00E+00  0.00E+00  0.00E+00  1.07E+03  1.36E+00  7.45E+00  6.71E-01  1.68E+00
   1    5    8     3     5    4.558E-01   4.558E-01  0.000E+00  0.00E+00  0.00E+00  0.00E+00  1.06E+03  1.16E+00  6.65E+00  4.99E-01  1.58E+00
   1    6    8     3     6    0.000E+00   0.000E+00  0.000E+00  0.00E+00  0.00E+00  0.00E+00  1.06E+03  0.00E+00  6.15E+00  1.84E-01  1.00E+00
   1    5   10     4     1    1.000E+01   9.096E-01  9.090E+00  0.00E+00  0.00E+00  0.00E+00  1.08E+03  6.39E-01  1.00E+01  2.50E-01  1.21E+00
   1    5    9     4     2    9.090E+00   1.802E+00  7.289E+00  0.00E+00  0.00E+00  0.00E+00  1.07E+03  6.03E-01  1.00E+01  5.00E-01  1.20E+00
   1    6    8     4     3    7.289E+00   1.235E+00  6.054E+00  0.00E+00  0.00E+00  0.00E+00  1.06E+03  5.28E-01  1.00E+01  3.50E-01  1.18E+00
   1    6    8     5     1    6.054E+00   1.466E+00  4.588E+00  0.00E+00  0.00E+00  0.00E+00  1.06E+03  5.39E-01  1.04E+01  4.14E-01  1.18E+00
   1    7    7     5     2    4.588E+00   1.484E+00  3.104E+00  0.00E+00  0.00E+00  0.00E+00  1.05E+03  4.81E-01  8.53E+00  4.26E-01  1.16E+00
   1    8    7     5     3    3.104E+00   8.249E-01  2.279E+00  0.00E+00  0.00E+00  0.00E+00  1.05E+03  4.24E-01  6.88E+00  2.41E-01  1.14E+00
   1    8    6     5     4    2.279E+00   4.921E-01  1.787E+00  0.00E+00  0.00E+00  0.00E+00  1.05E+03  3.85E-01  5.82E+00  1.45E-01  1.13E+00
   1    9    6     6     1    1.787E+00   1.787E+00  0.000E+00  0.00E+00  0.00E+00  0.00E+00  1.04E+03  2.51E-01  1.20E+01  6.00E-01  1.08E+00
   1   10    7     6     2    0.000E+00   0.000E+00  0.000E+00  0.00E+00  0.00E+00  0.00E+00  1.04E+03  0.00E+00  1.20E+01  6.00E-01  1.00E+00
   1   11    7     6     3    0.000E+00   0.000E+00  0.000E+00  0.00E+00  0.00E+00  0.00E+00  1.03E+03  0.00E+00  1.20E+01  6.00E-01  1.00E+00
   1   12    7     6     4    0.000E+00   0.000E+00  0.000E+00  0.00E+00  0.00E+00  0.00E+00  1.03E+03  0.00E+00  1.20E+01  6.00E-01  1.00E+00
   1   13    7     6     5    0.000E+00  -5.381E-01  5.381E-01  0.00E+00  0.00E+00  0.00E+00  1.03E+03  8.06E-02  1.20E+01  2.40E-01 -7.47E-01
   1   14    9     7     1    1.500E+02   3.224E+00  1.468E+02  0.00E+00  0.00E+00  0.00E+00  1.04E+03  2.28E+00  5.53E+01  5.59E+00  1.92E-01
   1   13    8     7     2    1.468E+02   5.451E+00  1.413E+02  0.00E+00  0.00E+00  0.00E+00  1.03E+03  2.26E+00  5.52E+01  6.14E+00  2.96E-01
   1   13    7     7     3    1.413E+02   7.847E+00  1.335E+02  0.00E+00  0.00E+00  0.00E+00  1.03E+03  2.22E+00  5.50E+01  5.56E+00  4.70E-01
   1   13    6     8     1    1.340E+02   6.666E+00  1.273E+02  0.00E+00  0.00E+00  0.00E+00  1.02E+03  2.67E+00  3.88E+01  3.95E+00  5.62E-01
   1   13    5     8     2    1.273E+02   4.453E+00  1.229E+02  0.00E+00  0.00E+00  0.00E+00  1.02E+03  2.63E+00  3.82E+01  3.89E+00  3.82E-01
   1   13    4     8     3    1.229E+02   2.008E+00  1.209E+02  0.00E+00  0.00E+00  0.00E+00  1.01E+03  2.61E+00  3.78E+01  3.85E+00  1.74E-01
   1   13    3     8     4    1.209E+02   2.022E-01  1.207E+02  0.00E+00  0.00E+00  0.00E+00  1.01E+03  2.60E+00  3.77E+01  3.84E+00  1.76E-02
   1   13    2     8     5    1.207E+02  -1.666E-01  1.209E+02  0.00E+00  0.00E+00  0.00E+00  9.99E+02  2.60E+00  3.77E+01  3.84E+00 -1.45E-02
   1   13    1     8     6    1.209E+02   6.040E-01  1.202E+02  0.00E+00  0.00E+00  0.00E+00  9.94E+02  2.60E+00  3.76E+01  2.30E+00  8.75E-02



1
              HEAD IN LAYER   1 AT END OF TIME STEP  30 IN STRESS PERIOD    2
  ---------------------------------------------------------------------------

           1       2       3       4       5       6       7       8       9      10
 ...................................................................................
   1  1060.10 1043.85 6999.00 6999.00 6999.00 6999.00 6999.00 6999.00 6999.00 6999.00
   2  1043.94 1034.97 1024.50 6999.00 6999.00 1008.53 1007.38 1003.61 6999.00 6999.00
   3  6999.00 1020.66 1019.34 1016.51 1018.91 1018.79 1017.83 1010.94 6999.00 6999.00
   4   991.94 1005.39 1011.10 1010.89 1010.88 1009.65 1010.13 1014.67 1003.62 6999.00
   5   986.78  997.80 1004.35 1006.92 1007.30 1007.48 1006.79 1007.26 1007.39 1006.02
   6   980.66  993.93 1001.10 1004.68 1005.37 1005.80 1006.05 1006.94 1003.02  990.12
   7   977.53  992.82 1000.05 1003.85 1004.75 1005.40 1006.00 1005.21  994.16 6999.00
   8  6999.00  995.33 1000.79 1004.24 1005.26 1006.14 1006.40 1003.01  990.48 6999.00
   9  6999.00  998.06 1002.50 1005.55 1006.64 1007.81 1007.60 1004.53  996.80 6999.00
  10  6999.00 1000.84 1004.63 1007.33 1008.42 1009.46 1009.91 1008.67 1005.72 1001.76
  11  6999.00 1002.92 1006.68 1009.20 1010.80 1012.47 1013.73 1014.76 1014.95 6999.00
  12   997.74 1002.51 1007.54 1010.51 1013.69 1016.83 1019.45 1024.11 1026.47 6999.00
  13   994.21  999.52 1005.67 1011.46 1017.11 1022.86 1028.23 1033.87 1035.28 6999.00
  14  6999.00 1003.03 1007.60 1012.09 1017.20 1022.57 1028.59 1034.82 1039.29 6999.00
  15  6999.00 6999.00 1009.96 1013.03 1017.03 1020.41 6999.00 6999.00 6999.00 6999.00
1
  VOLUMETRIC BUDGET FOR ENTIRE MODEL AT END OF TIME STEP 30 IN STRESS PERIOD   2
  ------------------------------------------------------------------------------

     CUMULATIVE VOLUMES      L**3       RATES FOR THIS TIME STEP      L**3/T
     ------------------                 ------------------------

           IN:                                      IN:
           ---                                      ---
             STORAGE = 30230089700.0000               STORAGE =           0.0000
       CONSTANT HEAD =           0.0000         CONSTANT HEAD =           0.0000
               WELLS =           0.0000                 WELLS =           0.0000
                  ET =           0.0000                    ET =           0.0000
     HEAD DEP BOUNDS =   392463392.0000       HEAD DEP BOUNDS =           0.2171
            RECHARGE =  3230328060.0000              RECHARGE =           1.7937
      STREAM LEAKAGE =167800734000.0000        STREAM LEAKAGE =          65.4556

            TOTAL IN =201653617000.0000              TOTAL IN =          67.4665

          OUT:                                     OUT:
          ----                                     ----
             STORAGE = 15054977000.0000               STORAGE =          49.7511
       CONSTANT HEAD =           0.0000         CONSTANT HEAD =           0.0000
               WELLS =157787963000.0000                 WELLS =           0.0000
                  ET = 27482535900.0000                    ET =          16.7740
     HEAD DEP BOUNDS =   402270368.0000       HEAD DEP BOUNDS =           0.2359
            RECHARGE =           0.0000              RECHARGE =           0.0000
      STREAM LEAKAGE =   928686144.0000        STREAM LEAKAGE =           0.7047

           TOTAL OUT =201656435000.0000             TOTAL OUT =          67.4657

            IN - OUT =    -2817984.0000              IN - OUT =       8.2242E-04

 PERCENT DISCREPANCY =           0.00     PERCENT DISCREPANCY =           0.00






          TIME SUMMARY AT END OF TIME STEP  30 IN STRESS PERIOD    2
                    SECONDS     MINUTES      HOURS       DAYS        YEARS
                    -----------------------------------------------------------
   TIME STEP LENGTH 2.15052E+07 3.58419E+05  5973.7      248.90     0.68146    
 STRESS PERIOD TIME 2.23000E+08 3.71667E+06  61944.      2581.0      7.0664    
         TOTAL TIME 1.80088E+09 3.00147E+07 5.00244E+05  20844.      57.066    
1
 
 SOLVING FOR HEAD 
    10 ITERATIONS FOR TIME STEP  31 IN STRESS PERIOD    2

 MAXIMUM HEAD CHANGE FOR EACH ITERATION:

    HEAD CHANGE   HEAD CHANGE   HEAD CHANGE   HEAD CHANGE   HEAD CHANGE
  LAYER,ROW,COL LAYER,ROW,COL LAYER,ROW,COL LAYER,ROW,COL LAYER,ROW,COL
 ----------------------------------------------------------------------
      3.966         1.360        0.9470        0.3382        0.1106    
  (  1,  7,  1) (  1,  6,  8) (  1,  5,  5) (  1,  6,  5) (  1,  2,  3)
     0.1773E-01    0.1048E-01    0.5521E-02    0.2349E-02    0.5623E-03
  (  1,  2,  3) (  1,  3,  4) (  1,  7,  5) (  1,  6,  5) (  1,  7,  5)


 NO OUTPUT CONTROL FOR STRESS PERIOD    2   TIME STEP  31
 
 SOLVING FOR HEAD 
    10 ITERATIONS FOR TIME STEP  32 IN STRESS PERIOD    2

 MAXIMUM HEAD CHANGE FOR EACH ITERATION:

    HEAD CHANGE   HEAD CHANGE   HEAD CHANGE   HEAD CHANGE   HEAD CHANGE
  LAYER,ROW,COL LAYER,ROW,COL LAYER,ROW,COL LAYER,ROW,COL LAYER,ROW,COL
 ----------------------------------------------------------------------
      4.181         1.400         1.022        0.3794        0.1341    
  (  1,  7,  1) (  1,  6,  8) (  1,  5,  5) (  1,  6,  5) (  1,  2,  3)
     0.2128E-01    0.1259E-01    0.6700E-02    0.3012E-02    0.7274E-03
  (  1,  2,  3) (  1,  3,  4) (  1,  7,  5) (  1,  6,  5) (  1,  7,  5)


 NO OUTPUT CONTROL FOR STRESS PERIOD    2   TIME STEP  32
 
 SOLVING FOR HEAD 
    10 ITERATIONS FOR TIME STEP  33 IN STRESS PERIOD    2

 MAXIMUM HEAD CHANGE FOR EACH ITERATION:

    HEAD CHANGE   HEAD CHANGE   HEAD CHANGE   HEAD CHANGE   HEAD CHANGE
  LAYER,ROW,COL LAYER,ROW,COL LAYER,ROW,COL LAYER,ROW,COL LAYER,ROW,COL
 ----------------------------------------------------------------------
      4.298         1.433         1.096        0.4237        0.1614    
  (  1,  7,  1) (  1,  6,  8) (  1,  5,  5) (  1,  6,  5) (  1,  2,  3)
     0.2531E-01    0.1503E-01    0.8128E-02    0.3915E-02    0.9512E-03
  (  1,  2,  3) (  1,  3,  4) (  1,  7,  5) (  1,  3,  4) (  1,  7,  5)


 OUTPUT CONTROL FOR STRESS PERIOD    2   TIME STEP  33
    PRINT BUDGET
    PRINT HEAD FOR ALL LAYERS
    SAVE BUDGET
 UBUDSV SAVING "              ET" ON UNIT 59 AT TIME STEP 33, STRESS PERIOD    2

  HEAD DEP BOUNDS   PERIOD    2   STEP  33
 BOUNDARY      1   LAYER   1   ROW    13   COL     1   RATE   -0.238903    
 BOUNDARY      2   LAYER   1   ROW    14   COL     9   RATE    0.216683    



   STREAM LEAKAGE   PERIOD    2   STEP  33

 LAYER ROW COL. STREAM  RCH.  FLOW INTO    FLOW TO  FLOW OUT OF  OVRLND.   DIRECT    STREAM    STREAM    STREAM    STREAM  STREAMBED  STREAMBED
                SEG.NO.  NO.  STRM. RCH.   AQUIFER   STRM. RCH.  RUNOFF    PRECIP      ET       HEAD      DEPTH     WIDTH  CONDCTNC.   GRADIENT

   1    1    1     1     1    2.500E+01   2.401E+00  2.260E+01  0.00E+00  0.00E+00  0.00E+00  1.09E+03  1.16E+00  1.28E+01  5.77E-01  1.39E+00
   1    2    2     1     2    2.260E+01   3.511E+00  1.909E+01  0.00E+00  0.00E+00  0.00E+00  1.09E+03  1.11E+00  1.22E+01  8.53E-01  1.37E+00
   1    3    3     1     3    1.909E+01   2.753E+00  1.634E+01  0.00E+00  0.00E+00  0.00E+00  1.08E+03  1.06E+00  1.13E+01  6.78E-01  1.35E+00
   1    3    4     1     4    1.634E+01   2.331E+00  1.400E+01  0.00E+00  0.00E+00  0.00E+00  1.08E+03  1.02E+00  1.05E+01  5.80E-01  1.34E+00
   1    4    5     2     1    4.004E+00   2.654E+00  1.350E+00  0.00E+00  0.00E+00  0.00E+00  1.07E+03  4.02E-01  1.20E+01  7.80E-01  1.13E+00
   1    5    6     2     2    1.350E+00   1.350E+00  0.000E+00  0.00E+00  0.00E+00  0.00E+00  1.07E+03  2.10E-01  1.20E+01  6.00E-01  1.07E+00
   1    6    6     2     3    0.000E+00   0.000E+00  0.000E+00  0.00E+00  0.00E+00  0.00E+00  1.06E+03  0.00E+00  1.20E+01  6.00E-01  1.00E+00
   1    7    6     2     4    0.000E+00   0.000E+00  0.000E+00  0.00E+00  0.00E+00  0.00E+00  1.06E+03  0.00E+00  1.20E+01  6.00E-01  1.00E+00
   1    8    6     2     5    0.000E+00   0.000E+00  0.000E+00  0.00E+00  0.00E+00  0.00E+00  1.05E+03  0.00E+00  1.20E+01  6.00E-01  1.00E+00
   1    3    5     3     1    1.000E+01   2.825E+00  7.175E+00  0.00E+00  0.00E+00  0.00E+00  1.08E+03  1.91E+00  9.64E+00  7.23E-01  1.95E+00
   1    3    6     3     2    7.175E+00   2.491E+00  4.684E+00  0.00E+00  0.00E+00  0.00E+00  1.07E+03  1.73E+00  8.91E+00  6.68E-01  1.86E+00
   1    3    7     3     3    4.684E+00   1.972E+00  2.712E+00  0.00E+00  0.00E+00  0.00E+00  1.07E+03  1.55E+00  8.22E+00  5.55E-01  1.78E+00
   1    4    8     3     4    2.712E+00   2.257E+00  4.558E-01  0.00E+00  0.00E+00  0.00E+00  1.07E+03  1.36E+00  7.45E+00  6.71E-01  1.68E+00
   1    5    8     3     5    4.558E-01   4.558E-01  0.000E+00  0.00E+00  0.00E+00  0.00E+00  1.06E+03  1.16E+00  6.65E+00  4.99E-01  1.58E+00
   1    6    8     3     6    0.000E+00   0.000E+00  0.000E+00  0.00E+00  0.00E+00  0.00E+00  1.06E+03  0.00E+00  6.15E+00  1.84E-01  1.00E+00
   1    5   10     4     1    1.000E+01   9.096E-01  9.090E+00  0.00E+00  0.00E+00  0.00E+00  1.08E+03  6.39E-01  1.00E+01  2.50E-01  1.21E+00
   1    5    9     4     2    9.090E+00   1.802E+00  7.289E+00  0.00E+00  0.00E+00  0.00E+00  1.07E+03  6.03E-01  1.00E+01  5.00E-01  1.20E+00
   1    6    8     4     3    7.289E+00   1.235E+00  6.054E+00  0.00E+00  0.00E+00  0.00E+00  1.06E+03  5.28E-01  1.00E+01  3.50E-01  1.18E+00
   1    6    8     5     1    6.054E+00   1.466E+00  4.588E+00  0.00E+00  0.00E+00  0.00E+00  1.06E+03  5.39E-01  1.04E+01  4.14E-01  1.18E+00
   1    7    7     5     2    4.588E+00   1.484E+00  3.104E+00  0.00E+00  0.00E+00  0.00E+00  1.05E+03  4.81E-01  8.53E+00  4.26E-01  1.16E+00
   1    8    7     5     3    3.104E+00   8.249E-01  2.279E+00  0.00E+00  0.00E+00  0.00E+00  1.05E+03  4.24E-01  6.88E+00  2.41E-01  1.14E+00
   1    8    6     5     4    2.279E+00   4.921E-01  1.787E+00  0.00E+00  0.00E+00  0.00E+00  1.05E+03  3.85E-01  5.82E+00  1.45E-01  1.13E+00
   1    9    6     6     1    1.787E+00   1.787E+00  0.000E+00  0.00E+00  0.00E+00  0.00E+00  1.04E+03  2.51E-01  1.20E+01  6.00E-01  1.08E+00
   1   10    7     6     2    0.000E+00   0.000E+00  0.000E+00  0.00E+00  0.00E+00  0.00E+00  1.04E+03  0.00E+00  1.20E+01  6.00E-01  1.00E+00
   1   11    7     6     3    0.000E+00   0.000E+00  0.000E+00  0.00E+00  0.00E+00  0.00E+00  1.03E+03  0.00E+00  1.20E+01  6.00E-01  1.00E+00
   1   12    7     6     4    0.000E+00   0.000E+00  0.000E+00  0.00E+00  0.00E+00  0.00E+00  1.03E+03  0.00E+00  1.20E+01  6.00E-01  1.00E+00
   1   13    7     6     5    0.000E+00  -5.862E-01  5.862E-01  0.00E+00  0.00E+00  0.00E+00  1.03E+03  8.48E-02  1.20E+01  2.40E-01 -8.14E-01
   1   14    9     7     1    1.500E+02   3.163E+00  1.468E+02  0.00E+00  0.00E+00  0.00E+00  1.04E+03  2.28E+00  5.53E+01  5.59E+00  1.89E-01
   1   13    8     7     2    1.468E+02   5.105E+00  1.417E+02  0.00E+00  0.00E+00  0.00E+00  1.03E+03  2.26E+00  5.52E+01  6.14E+00  2.77E-01
   1   13    7     7     3    1.417E+02   6.741E+00  1.350E+02  0.00E+00  0.00E+00  0.00E+00  1.03E+03  2.23E+00  5.50E+01  5.56E+00  4.04E-01
   1   13    6     8     1    1.356E+02   5.365E+00  1.302E+02  0.00E+00  0.00E+00  0.00E+00  1.02E+03  2.69E+00  3.90E+01  3.98E+00  4.50E-01
   1   13    5     8     2    1.302E+02   2.970E+00  1.272E+02  0.00E+00  0.00E+00  0.00E+00  1.02E+03  2.66E+00  3.86E+01  3.93E+00  2.52E-01
   1   13    4     8     3    1.272E+02   7.281E-01  1.265E+02  0.00E+00  0.00E+00  0.00E+00  1.01E+03  2.65E+00  3.84E+01  3.91E+00  6.21E-02
   1   13    3     8     4    1.265E+02  -6.343E-01  1.271E+02  0.00E+00  0.00E+00  0.00E+00  1.01E+03  2.65E+00  3.84E+01  3.91E+00 -5.41E-02
   1   13    2     8     5    1.271E+02  -4.046E-01  1.276E+02  0.00E+00  0.00E+00  0.00E+00  1.00E+03  2.65E+00  3.84E+01  3.91E+00 -3.45E-02
   1   13    1     8     6    1.276E+02   5.556E-01  1.270E+02  0.00E+00  0.00E+00  0.00E+00  9.95E+02  2.65E+00  3.84E+01  2.35E+00  7.89E-02



1
              HEAD IN LAYER   1 AT END OF TIME STEP  33 IN STRESS PERIOD    2
  ---------------------------------------------------------------------------

           1       2       3       4       5       6       7       8       9      10
 ...................................................................................
   1  1065.57 1052.39 6999.00 6999.00 6999.00 6999.00 6999.00 6999.00 6999.00 6999.00
   2  1052.05 1045.91 1036.79 6999.00 6999.00 1022.87 1021.38 1017.45 6999.00 6999.00
   3  6999.00 1033.15 1032.14 1029.36 1031.65 1031.46 1030.55 1024.20 6999.00 6999.00
   4  1007.11 1018.94 1024.13 1023.69 1023.58 1022.38 1022.97 1027.43 1018.78 6999.00
   5  1002.69 1011.65 1017.34 1019.45 1019.74 1019.92 1019.31 1019.98 1020.49 1019.32
   6   997.76 1007.64 1013.68 1016.66 1017.24 1017.71 1018.11 1019.26 1016.24 1007.31
   7   995.31 1005.97 1011.85 1014.97 1015.74 1016.44 1017.29 1017.11 1010.06 6999.00
   8  6999.00 1007.10 1011.33 1014.11 1015.00 1015.89 1016.33 1014.02 1005.60 6999.00
   9  6999.00 1007.89 1011.31 1013.81 1014.81 1015.99 1015.85 1013.46 1007.62 6999.00
  10  6999.00 1008.25 1011.34 1013.77 1014.88 1015.92 1016.37 1015.33 1012.59 1008.65
  11  6999.00 1007.49 1010.79 1013.67 1015.35 1017.01 1018.20 1019.16 1019.39 6999.00
  12   998.61 1004.20 1009.36 1012.89 1016.18 1019.23 1021.64 1025.77 1028.23 6999.00
  13   994.29  999.63 1005.93 1011.83 1017.53 1023.22 1028.44 1033.93 1035.47 6999.00
  14  6999.00 1003.29 1007.95 1012.51 1017.64 1022.94 1028.82 1034.90 1039.30 6999.00
  15  6999.00 6999.00 1010.45 1013.55 1017.56 1020.90 6999.00 6999.00 6999.00 6999.00
1
  VOLUMETRIC BUDGET FOR ENTIRE MODEL AT END OF TIME STEP 33 IN STRESS PERIOD   2
  ------------------------------------------------------------------------------

     CUMULATIVE VOLUMES      L**3       RATES FOR THIS TIME STEP      L**3/T
     ------------------                 ------------------------

           IN:                                      IN:
           ---                                      ---
             STORAGE = 30230089700.0000               STORAGE =           0.0000
       CONSTANT HEAD =           0.0000         CONSTANT HEAD =           0.0000
               WELLS =           0.0000                 WELLS =           0.0000
                  ET =           0.0000                    ET =           0.0000
     HEAD DEP BOUNDS =   409439808.0000       HEAD DEP BOUNDS =           0.2167
            RECHARGE =  3370779140.0000              RECHARGE =           1.7937
      STREAM LEAKAGE =172605882000.0000        STREAM LEAKAGE =          59.6274

            TOTAL IN =206616199000.0000              TOTAL IN =          61.6378

          OUT:                                     OUT:
          ----                                     ----
             STORAGE = 18536976400.0000               STORAGE =          42.0061
       CONSTANT HEAD =           0.0000         CONSTANT HEAD =           0.0000
               WELLS =157787963000.0000                 WELLS =           0.0000
                  ET = 28844513300.0000                    ET =          17.7636
     HEAD DEP BOUNDS =   420903904.0000       HEAD DEP BOUNDS =           0.2389
            RECHARGE =           0.0000              RECHARGE =           0.0000
      STREAM LEAKAGE =  1028430080.0000        STREAM LEAKAGE =           1.6251

           TOTAL OUT =206618788000.0000             TOTAL OUT =          61.6337

            IN - OUT =    -2596000.0000              IN - OUT =       4.1064E-03

 PERCENT DISCREPANCY =           0.00     PERCENT DISCREPANCY =           0.01






          TIME SUMMARY AT END OF TIME STEP  33 IN STRESS PERIOD    2
                    SECONDS     MINUTES      HOURS       DAYS        YEARS
                    -----------------------------------------------------------
   TIME STEP LENGTH 2.86234E+07 4.77056E+05  7950.9      331.29     0.90702    
 STRESS PERIOD TIME 3.01300E+08 5.02167E+06  83695.      3487.3      9.5476    
         TOTAL TIME 1.87918E+09 3.13197E+07 5.21994E+05  21750.      59.548    
1
 
 SOLVING FOR HEAD 
    11 ITERATIONS FOR TIME STEP  34 IN STRESS PERIOD    2

 MAXIMUM HEAD CHANGE FOR EACH ITERATION:

    HEAD CHANGE   HEAD CHANGE   HEAD CHANGE   HEAD CHANGE   HEAD CHANGE
  LAYER,ROW,COL LAYER,ROW,COL LAYER,ROW,COL LAYER,ROW,COL LAYER,ROW,COL
 ----------------------------------------------------------------------
      4.455         1.461         1.168        0.4709        0.1928    
  (  1,  6, 10) (  1,  6, 10) (  1,  5,  5) (  1,  6,  5) (  1,  2,  3)
     0.2984E-01    0.1783E-01    0.9814E-02    0.5093E-02    0.1234E-02
  (  1,  2,  3) (  1,  3,  4) (  1,  7,  5) (  1,  3,  4) (  1,  7,  5)
     0.5957E-03
  (  1,  2,  3)


 NO OUTPUT CONTROL FOR STRESS PERIOD    2   TIME STEP  34
 
 SOLVING FOR HEAD 
    11 ITERATIONS FOR TIME STEP  35 IN STRESS PERIOD    2

 MAXIMUM HEAD CHANGE FOR EACH ITERATION:

    HEAD CHANGE   HEAD CHANGE   HEAD CHANGE   HEAD CHANGE   HEAD CHANGE
  LAYER,ROW,COL LAYER,ROW,COL LAYER,ROW,COL LAYER,ROW,COL LAYER,ROW,COL
 ----------------------------------------------------------------------
      4.416         1.482         1.235        0.5195        0.2283    
  (  1,  6, 10) (  1,  6,  9) (  1,  5,  5) (  1,  6,  5) (  1,  2,  3)
     0.3483E-01    0.2094E-01    0.1173E-01    0.6556E-02    0.1595E-02
  (  1,  2,  3) (  1,  3,  4) (  1,  7,  6) (  1,  3,  4) (  1,  7,  5)
     0.7957E-03
  (  1,  2,  3)


 OUTPUT CONTROL FOR STRESS PERIOD    2   TIME STEP  35
    PRINT BUDGET
    PRINT HEAD FOR ALL LAYERS
    SAVE BUDGET
 UBUDSV SAVING "              ET" ON UNIT 59 AT TIME STEP 35, STRESS PERIOD    2

  HEAD DEP BOUNDS   PERIOD    2   STEP  35
 BOUNDARY      1   LAYER   1   ROW    13   COL     1   RATE   -0.240821    
 BOUNDARY      2   LAYER   1   ROW    14   COL     9   RATE    0.216403    



   STREAM LEAKAGE   PERIOD    2   STEP  35

 LAYER ROW COL. STREAM  RCH.  FLOW INTO    FLOW TO  FLOW OUT OF  OVRLND.   DIRECT    STREAM    STREAM    STREAM    STREAM  STREAMBED  STREAMBED
                SEG.NO.  NO.  STRM. RCH.   AQUIFER   STRM. RCH.  RUNOFF    PRECIP      ET       HEAD      DEPTH     WIDTH  CONDCTNC.   GRADIENT

   1    1    1     1     1    2.500E+01   2.401E+00  2.260E+01  0.00E+00  0.00E+00  0.00E+00  1.09E+03  1.16E+00  1.28E+01  5.77E-01  1.39E+00
   1    2    2     1     2    2.260E+01   3.511E+00  1.909E+01  0.00E+00  0.00E+00  0.00E+00  1.09E+03  1.11E+00  1.22E+01  8.53E-01  1.37E+00
   1    3    3     1     3    1.909E+01   2.753E+00  1.634E+01  0.00E+00  0.00E+00  0.00E+00  1.08E+03  1.06E+00  1.13E+01  6.78E-01  1.35E+00
   1    3    4     1     4    1.634E+01   2.331E+00  1.400E+01  0.00E+00  0.00E+00  0.00E+00  1.08E+03  1.02E+00  1.05E+01  5.80E-01  1.34E+00
   1    4    5     2     1    4.004E+00   2.654E+00  1.350E+00  0.00E+00  0.00E+00  0.00E+00  1.07E+03  4.02E-01  1.20E+01  7.80E-01  1.13E+00
   1    5    6     2     2    1.350E+00   1.350E+00  0.000E+00  0.00E+00  0.00E+00  0.00E+00  1.07E+03  2.10E-01  1.20E+01  6.00E-01  1.07E+00
   1    6    6     2     3    0.000E+00   0.000E+00  0.000E+00  0.00E+00  0.00E+00  0.00E+00  1.06E+03  0.00E+00  1.20E+01  6.00E-01  1.00E+00
   1    7    6     2     4    0.000E+00   0.000E+00  0.000E+00  0.00E+00  0.00E+00  0.00E+00  1.06E+03  0.00E+00  1.20E+01  6.00E-01  1.00E+00
   1    8    6     2     5    0.000E+00   0.000E+00  0.000E+00  0.00E+00  0.00E+00  0.00E+00  1.05E+03  0.00E+00  1.20E+01  6.00E-01  1.00E+00
   1    3    5     3     1    1.000E+01   2.825E+00  7.175E+00  0.00E+00  0.00E+00  0.00E+00  1.08E+03  1.91E+00  9.64E+00  7.23E-01  1.95E+00
   1    3    6     3     2    7.175E+00   2.491E+00  4.684E+00  0.00E+00  0.00E+00  0.00E+00  1.07E+03  1.73E+00  8.91E+00  6.68E-01  1.86E+00
   1    3    7     3     3    4.684E+00   1.972E+00  2.712E+00  0.00E+00  0.00E+00  0.00E+00  1.07E+03  1.55E+00  8.22E+00  5.55E-01  1.78E+00
   1    4    8     3     4    2.712E+00   2.257E+00  4.558E-01  0.00E+00  0.00E+00  0.00E+00  1.07E+03  1.36E+00  7.45E+00  6.71E-01  1.68E+00
   1    5    8     3     5    4.558E-01   4.558E-01  0.000E+00  0.00E+00  0.00E+00  0.00E+00  1.06E+03  1.16E+00  6.65E+00  4.99E-01  1.58E+00
   1    6    8     3     6    0.000E+00   0.000E+00  0.000E+00  0.00E+00  0.00E+00  0.00E+00  1.06E+03  0.00E+00  6.15E+00  1.84E-01  1.00E+00
   1    5   10     4     1    1.000E+01   9.096E-01  9.090E+00  0.00E+00  0.00E+00  0.00E+00  1.08E+03  6.39E-01  1.00E+01  2.50E-01  1.21E+00
   1    5    9     4     2    9.090E+00   1.802E+00  7.289E+00  0.00E+00  0.00E+00  0.00E+00  1.07E+03  6.03E-01  1.00E+01  5.00E-01  1.20E+00
   1    6    8     4     3    7.289E+00   1.235E+00  6.054E+00  0.00E+00  0.00E+00  0.00E+00  1.06E+03  5.28E-01  1.00E+01  3.50E-01  1.18E+00
   1    6    8     5     1    6.054E+00   1.466E+00  4.588E+00  0.00E+00  0.00E+00  0.00E+00  1.06E+03  5.39E-01  1.04E+01  4.14E-01  1.18E+00
   1    7    7     5     2    4.588E+00   1.484E+00  3.104E+00  0.00E+00  0.00E+00  0.00E+00  1.05E+03  4.81E-01  8.53E+00  4.26E-01  1.16E+00
   1    8    7     5     3    3.104E+00   8.249E-01  2.279E+00  0.00E+00  0.00E+00  0.00E+00  1.05E+03  4.24E-01  6.88E+00  2.41E-01  1.14E+00
   1    8    6     5     4    2.279E+00   4.921E-01  1.787E+00  0.00E+00  0.00E+00  0.00E+00  1.05E+03  3.85E-01  5.82E+00  1.45E-01  1.13E+00
   1    9    6     6     1    1.787E+00   1.787E+00  0.000E+00  0.00E+00  0.00E+00  0.00E+00  1.04E+03  2.51E-01  1.20E+01  6.00E-01  1.08E+00
   1   10    7     6     2    0.000E+00   0.000E+00  0.000E+00  0.00E+00  0.00E+00  0.00E+00  1.04E+03  0.00E+00  1.20E+01  6.00E-01  1.00E+00
   1   11    7     6     3    0.000E+00   0.000E+00  0.000E+00  0.00E+00  0.00E+00  0.00E+00  1.03E+03  0.00E+00  1.20E+01  6.00E-01  1.00E+00
   1   12    7     6     4    0.000E+00   0.000E+00  0.000E+00  0.00E+00  0.00E+00  0.00E+00  1.03E+03  0.00E+00  1.20E+01  6.00E-01  1.00E+00
   1   13    7     6     5    0.000E+00  -6.179E-01  6.179E-01  0.00E+00  0.00E+00  0.00E+00  1.03E+03  8.75E-02  1.20E+01  2.40E-01 -8.58E-01
   1   14    9     7     1    1.500E+02   3.123E+00  1.469E+02  0.00E+00  0.00E+00  0.00E+00  1.04E+03  2.28E+00  5.53E+01  5.59E+00  1.86E-01
   1   13    8     7     2    1.469E+02   4.895E+00  1.420E+02  0.00E+00  0.00E+00  0.00E+00  1.03E+03  2.26E+00  5.52E+01  6.14E+00  2.66E-01
   1   13    7     7     3    1.420E+02   6.011E+00  1.360E+02  0.00E+00  0.00E+00  0.00E+00  1.03E+03  2.23E+00  5.50E+01  5.57E+00  3.60E-01
   1   13    6     8     1    1.366E+02   4.518E+00  1.321E+02  0.00E+00  0.00E+00  0.00E+00  1.02E+03  2.70E+00  3.92E+01  3.99E+00  3.77E-01
   1   13    5     8     2    1.321E+02   1.997E+00  1.301E+02  0.00E+00  0.00E+00  0.00E+00  1.02E+03  2.68E+00  3.88E+01  3.96E+00  1.68E-01
   1   13    4     8     3    1.301E+02  -1.296E-01  1.302E+02  0.00E+00  0.00E+00  0.00E+00  1.01E+03  2.67E+00  3.87E+01  3.95E+00 -1.09E-02
   1   13    3     8     4    1.302E+02  -1.196E+00  1.314E+02  0.00E+00  0.00E+00  0.00E+00  1.01E+03  2.68E+00  3.88E+01  3.95E+00 -1.01E-01
   1   13    2     8     5    1.314E+02  -5.624E-01  1.320E+02  0.00E+00  0.00E+00  0.00E+00  1.00E+03  2.68E+00  3.89E+01  3.96E+00 -4.73E-02
   1   13    1     8     6    1.320E+02   5.239E-01  1.314E+02  0.00E+00  0.00E+00  0.00E+00  9.95E+02  2.68E+00  3.89E+01  2.38E+00  7.34E-02



1
              HEAD IN LAYER   1 AT END OF TIME STEP  35 IN STRESS PERIOD    2
  ---------------------------------------------------------------------------

           1       2       3       4       5       6       7       8       9      10
 ...................................................................................
   1  1071.31 1059.94 6999.00 6999.00 6999.00 6999.00 6999.00 6999.00 6999.00 6999.00
   2  1059.53 1054.55 1046.04 6999.00 6999.00 1033.90 1032.55 1029.04 6999.00 6999.00
   3  6999.00 1042.60 1041.51 1038.63 1040.79 1040.73 1040.09 1034.37 6999.00 6999.00
   4  1019.11 1029.13 1033.58 1032.83 1032.60 1031.43 1032.21 1036.76 1029.45 6999.00
   5  1014.96 1021.92 1026.66 1028.31 1028.51 1028.70 1028.19 1029.09 1030.08 1029.45
   6  1010.41 1017.68 1022.61 1025.06 1025.56 1026.07 1026.62 1028.01 1026.02 1020.94
   7  1008.02 1015.41 1020.12 1022.70 1023.40 1024.13 1025.19 1025.50 1020.60 6999.00
   8  6999.00 1015.16 1018.58 1020.91 1021.72 1022.64 1023.22 1021.77 1015.86 6999.00
   9  6999.00 1014.42 1017.28 1019.46 1020.42 1021.61 1021.53 1019.71 1015.36 6999.00
  10  6999.00 1013.12 1015.85 1018.15 1019.28 1020.32 1020.79 1019.96 1017.70 1014.34
  11  6999.00 1010.49 1013.55 1016.68 1018.41 1020.06 1021.22 1022.13 1022.52 6999.00
  12   999.16 1005.31 1010.57 1014.47 1017.80 1020.78 1023.09 1026.70 1029.38 6999.00
  13   994.34  999.70 1006.10 1012.08 1017.80 1023.45 1028.57 1033.96 1035.59 6999.00
  14  6999.00 1003.45 1008.18 1012.78 1017.92 1023.18 1028.96 1034.95 1039.31 6999.00
  15  6999.00 6999.00 1010.77 1013.89 1017.90 1021.23 6999.00 6999.00 6999.00 6999.00
1
  VOLUMETRIC BUDGET FOR ENTIRE MODEL AT END OF TIME STEP 35 IN STRESS PERIOD   2
  ------------------------------------------------------------------------------

     CUMULATIVE VOLUMES      L**3       RATES FOR THIS TIME STEP      L**3/T
     ------------------                 ------------------------

           IN:                                      IN:
           ---                                      ---
             STORAGE = 30230089700.0000               STORAGE =           0.0000
       CONSTANT HEAD =           0.0000         CONSTANT HEAD =           0.0000
               WELLS =           0.0000                 WELLS =           0.0000
                  ET =           0.0000                    ET =           0.0000
     HEAD DEP BOUNDS =   423752896.0000       HEAD DEP BOUNDS =           0.2164
            RECHARGE =  3489381890.0000              RECHARGE =           1.7937
      STREAM LEAKAGE =176366551000.0000        STREAM LEAKAGE =          56.0689

            TOTAL IN =210509775000.0000              TOTAL IN =          58.0791

          OUT:                                     OUT:
          ----                                     ----
             STORAGE = 21043591200.0000               STORAGE =          36.6043
       CONSTANT HEAD =           0.0000         CONSTANT HEAD =           0.0000
               WELLS =157787963000.0000                 WELLS =           0.0000
                  ET = 30065567700.0000                    ET =          18.7242
     HEAD DEP BOUNDS =   436797056.0000       HEAD DEP BOUNDS =           0.2408
            RECHARGE =           0.0000              RECHARGE =           0.0000
      STREAM LEAKAGE =  1178282500.0000        STREAM LEAKAGE =           2.5064

           TOTAL OUT =210512200000.0000             TOTAL OUT =          58.0757

            IN - OUT =    -2426304.0000              IN - OUT =       3.4331E-03

 PERCENT DISCREPANCY =           0.00     PERCENT DISCREPANCY =           0.01






          TIME SUMMARY AT END OF TIME STEP  35 IN STRESS PERIOD    2
                    SECONDS     MINUTES      HOURS       DAYS        YEARS
                    -----------------------------------------------------------
   TIME STEP LENGTH 3.46343E+07 5.77238E+05  9620.6      400.86      1.0975    
 STRESS PERIOD TIME 3.67420E+08 6.12367E+06 1.02061E+05  4252.6      11.643    
         TOTAL TIME 1.94530E+09 3.24217E+07 5.40361E+05  22515.      61.643    
1
 
 SOLVING FOR HEAD 
    12 ITERATIONS FOR TIME STEP  36 IN STRESS PERIOD    2

 MAXIMUM HEAD CHANGE FOR EACH ITERATION:

    HEAD CHANGE   HEAD CHANGE   HEAD CHANGE   HEAD CHANGE   HEAD CHANGE
  LAYER,ROW,COL LAYER,ROW,COL LAYER,ROW,COL LAYER,ROW,COL LAYER,ROW,COL
 ----------------------------------------------------------------------
      4.201         1.505         1.293        0.5687        0.2678    
  (  1,  6, 10) (  1,  6,  9) (  1,  5,  5) (  1,  6,  5) (  1,  2,  3)
     0.4021E-01    0.2442E-01    0.1404E-01    0.8387E-02    0.2070E-02
  (  1,  2,  3) (  1,  2,  3) (  1,  7,  6) (  1,  3,  4) (  1,  7,  5)
     0.1054E-02    0.3429E-03
  (  1,  2,  3) (  1,  4,  3)


 NO OUTPUT CONTROL FOR STRESS PERIOD    2   TIME STEP  36
 
 SOLVING FOR HEAD 
    12 ITERATIONS FOR TIME STEP  37 IN STRESS PERIOD    2

 MAXIMUM HEAD CHANGE FOR EACH ITERATION:

    HEAD CHANGE   HEAD CHANGE   HEAD CHANGE   HEAD CHANGE   HEAD CHANGE
  LAYER,ROW,COL LAYER,ROW,COL LAYER,ROW,COL LAYER,ROW,COL LAYER,ROW,COL
 ----------------------------------------------------------------------
      4.081         1.504         1.350        0.6163        0.3107    
  (  1,  2,  8) (  1,  4,  2) (  1,  3,  4) (  1,  6,  5) (  1,  2,  3)
     0.5008E-01    0.2860E-01    0.1664E-01    0.1061E-01    0.2690E-02
  (  1,  5, 10) (  1,  2,  3) (  1,  7,  6) (  1,  3,  4) (  1,  7,  8)
     0.1379E-02    0.4497E-03
  (  1,  2,  3) (  1,  4,  3)


 NO OUTPUT CONTROL FOR STRESS PERIOD    2   TIME STEP  37
 
 SOLVING FOR HEAD 
    12 ITERATIONS FOR TIME STEP  38 IN STRESS PERIOD    2

 MAXIMUM HEAD CHANGE FOR EACH ITERATION:

    HEAD CHANGE   HEAD CHANGE   HEAD CHANGE   HEAD CHANGE   HEAD CHANGE
  LAYER,ROW,COL LAYER,ROW,COL LAYER,ROW,COL LAYER,ROW,COL LAYER,ROW,COL
 ----------------------------------------------------------------------
      3.953         1.524         1.412        0.6596        0.3553    
  (  1,  2,  8) (  1,  4,  2) (  1,  3,  4) (  1,  6,  5) (  1,  2,  3)
     0.6702E-01    0.3300E-01    0.1950E-01    0.1321E-01    0.3456E-02
  (  1,  5, 10) (  1,  2,  3) (  1,  7,  6) (  1,  3,  4) (  1,  6,  9)
     0.1778E-02    0.5790E-03
  (  1,  2,  3) (  1,  4,  3)


 NO OUTPUT CONTROL FOR STRESS PERIOD    2   TIME STEP  38
 
 SOLVING FOR HEAD 
    12 ITERATIONS FOR TIME STEP  39 IN STRESS PERIOD    2

 MAXIMUM HEAD CHANGE FOR EACH ITERATION:

    HEAD CHANGE   HEAD CHANGE   HEAD CHANGE   HEAD CHANGE   HEAD CHANGE
  LAYER,ROW,COL LAYER,ROW,COL LAYER,ROW,COL LAYER,ROW,COL LAYER,ROW,COL
 ----------------------------------------------------------------------
      3.749         1.521         1.455        0.6922        0.3986    
  (  1,  2,  8) (  1,  4,  2) (  1,  3,  4) (  1,  6,  5) (  1,  2,  3)
     0.8464E-01    0.3733E-01    0.2224E-01    0.1600E-01    0.4353E-02
  (  1,  5, 10) (  1,  2,  3) (  1,  6,  7) (  1,  3,  4) (  1,  6,  9)
     0.2231E-02    0.7231E-03
  (  1,  2,  3) (  1,  4,  3)


 NO OUTPUT CONTROL FOR STRESS PERIOD    2   TIME STEP  39
 
 SOLVING FOR HEAD 
    14 ITERATIONS FOR TIME STEP  40 IN STRESS PERIOD    2

 MAXIMUM HEAD CHANGE FOR EACH ITERATION:

    HEAD CHANGE   HEAD CHANGE   HEAD CHANGE   HEAD CHANGE   HEAD CHANGE
  LAYER,ROW,COL LAYER,ROW,COL LAYER,ROW,COL LAYER,ROW,COL LAYER,ROW,COL
 ----------------------------------------------------------------------
      3.484         1.509         1.469        0.7191        0.4170    
  (  1,  2,  8) (  1,  4,  2) (  1,  3,  4) (  1,  6,  5) (  1,  2,  3)
     0.1051        0.4278E-01    0.2707E-01    0.2067E-01    0.5767E-02
  (  1,  5, 10) (  1,  2,  3) (  1,  6,  6) (  1,  3,  4) (  1,  6,  9)
     0.3090E-02    0.1008E-02    0.1093E-02    0.4187E-03
  (  1,  2,  3) (  1,  3,  2) (  1,  2,  3) (  1,  5,  6)


 OUTPUT CONTROL FOR STRESS PERIOD    2   TIME STEP  40
    PRINT BUDGET
    PRINT HEAD FOR ALL LAYERS
    SAVE BUDGET
 UBUDSV SAVING "              ET" ON UNIT 59 AT TIME STEP 40, STRESS PERIOD    2

  HEAD DEP BOUNDS   PERIOD    2   STEP  40
 BOUNDARY      1   LAYER   1   ROW    13   COL     1   RATE   -0.245222    
 BOUNDARY      2   LAYER   1   ROW    14   COL     9   RATE    0.215725    



   STREAM LEAKAGE   PERIOD    2   STEP  40

 LAYER ROW COL. STREAM  RCH.  FLOW INTO    FLOW TO  FLOW OUT OF  OVRLND.   DIRECT    STREAM    STREAM    STREAM    STREAM  STREAMBED  STREAMBED
                SEG.NO.  NO.  STRM. RCH.   AQUIFER   STRM. RCH.  RUNOFF    PRECIP      ET       HEAD      DEPTH     WIDTH  CONDCTNC.   GRADIENT

   1    1    1     1     1    2.500E+01   1.985E+00  2.301E+01  0.00E+00  0.00E+00  0.00E+00  1.09E+03  1.17E+00  1.29E+01  5.79E-01  1.14E+00
   1    2    2     1     2    2.301E+01   3.542E+00  1.947E+01  0.00E+00  0.00E+00  0.00E+00  1.09E+03  1.12E+00  1.23E+01  8.59E-01  1.37E+00
   1    3    3     1     3    1.947E+01   2.786E+00  1.669E+01  0.00E+00  0.00E+00  0.00E+00  1.08E+03  1.07E+00  1.14E+01  6.85E-01  1.36E+00
   1    3    4     1     4    1.669E+01   2.360E+00  1.433E+01  0.00E+00  0.00E+00  0.00E+00  1.08E+03  1.02E+00  1.06E+01  5.87E-01  1.34E+00
   1    4    5     2     1    4.327E+00   2.669E+00  1.658E+00  0.00E+00  0.00E+00  0.00E+00  1.07E+03  4.22E-01  1.20E+01  7.80E-01  1.14E+00
   1    5    6     2     2    1.658E+00   1.658E+00  0.000E+00  0.00E+00  0.00E+00  0.00E+00  1.07E+03  2.37E-01  1.20E+01  6.00E-01  1.08E+00
   1    6    6     2     3    0.000E+00   0.000E+00  0.000E+00  0.00E+00  0.00E+00  0.00E+00  1.06E+03  0.00E+00  1.20E+01  6.00E-01  1.00E+00
   1    7    6     2     4    0.000E+00   0.000E+00  0.000E+00  0.00E+00  0.00E+00  0.00E+00  1.06E+03  0.00E+00  1.20E+01  6.00E-01  1.00E+00
   1    8    6     2     5    0.000E+00   0.000E+00  0.000E+00  0.00E+00  0.00E+00  0.00E+00  1.05E+03  0.00E+00  1.20E+01  6.00E-01  1.00E+00
   1    3    5     3     1    1.000E+01   2.825E+00  7.175E+00  0.00E+00  0.00E+00  0.00E+00  1.08E+03  1.91E+00  9.64E+00  7.23E-01  1.95E+00
   1    3    6     3     2    7.175E+00   2.491E+00  4.684E+00  0.00E+00  0.00E+00  0.00E+00  1.07E+03  1.73E+00  8.91E+00  6.68E-01  1.86E+00
   1    3    7     3     3    4.684E+00   1.972E+00  2.712E+00  0.00E+00  0.00E+00  0.00E+00  1.07E+03  1.55E+00  8.22E+00  5.55E-01  1.78E+00
   1    4    8     3     4    2.712E+00   2.257E+00  4.558E-01  0.00E+00  0.00E+00  0.00E+00  1.07E+03  1.36E+00  7.45E+00  6.71E-01  1.68E+00
   1    5    8     3     5    4.558E-01   4.558E-01  0.000E+00  0.00E+00  0.00E+00  0.00E+00  1.06E+03  1.16E+00  6.65E+00  4.99E-01  1.58E+00
   1    6    8     3     6    0.000E+00   0.000E+00  0.000E+00  0.00E+00  0.00E+00  0.00E+00  1.06E+03  0.00E+00  6.15E+00  1.84E-01  1.00E+00
   1    5   10     4     1    1.000E+01   9.096E-01  9.090E+00  0.00E+00  0.00E+00  0.00E+00  1.08E+03  6.39E-01  1.00E+01  2.50E-01  1.21E+00
   1    5    9     4     2    9.090E+00   1.802E+00  7.289E+00  0.00E+00  0.00E+00  0.00E+00  1.07E+03  6.03E-01  1.00E+01  5.00E-01  1.20E+00
   1    6    8     4     3    7.289E+00   1.235E+00  6.054E+00  0.00E+00  0.00E+00  0.00E+00  1.06E+03  5.28E-01  1.00E+01  3.50E-01  1.18E+00
   1    6    8     5     1    6.054E+00   1.466E+00  4.588E+00  0.00E+00  0.00E+00  0.00E+00  1.06E+03  5.39E-01  1.04E+01  4.14E-01  1.18E+00
   1    7    7     5     2    4.588E+00   1.484E+00  3.104E+00  0.00E+00  0.00E+00  0.00E+00  1.05E+03  4.81E-01  8.53E+00  4.26E-01  1.16E+00
   1    8    7     5     3    3.104E+00   8.249E-01  2.279E+00  0.00E+00  0.00E+00  0.00E+00  1.05E+03  4.24E-01  6.88E+00  2.41E-01  1.14E+00
   1    8    6     5     4    2.279E+00   4.921E-01  1.787E+00  0.00E+00  0.00E+00  0.00E+00  1.05E+03  3.85E-01  5.82E+00  1.45E-01  1.13E+00
   1    9    6     6     1    1.787E+00   1.787E+00  0.000E+00  0.00E+00  0.00E+00  0.00E+00  1.04E+03  2.51E-01  1.20E+01  6.00E-01  1.08E+00
   1   10    7     6     2    0.000E+00   0.000E+00  0.000E+00  0.00E+00  0.00E+00  0.00E+00  1.04E+03  0.00E+00  1.20E+01  6.00E-01  1.00E+00
   1   11    7     6     3    0.000E+00   0.000E+00  0.000E+00  0.00E+00  0.00E+00  0.00E+00  1.03E+03  0.00E+00  1.20E+01  6.00E-01  1.00E+00
   1   12    7     6     4    0.000E+00   0.000E+00  0.000E+00  0.00E+00  0.00E+00  0.00E+00  1.03E+03  6.10E-05  1.20E+01  6.00E-01  8.62E-01
   1   13    7     6     5    0.000E+00  -6.933E-01  6.933E-01  0.00E+00  0.00E+00  0.00E+00  1.03E+03  9.37E-02  1.20E+01  2.40E-01 -9.63E-01
   1   14    9     7     1    1.500E+02   3.025E+00  1.470E+02  0.00E+00  0.00E+00  0.00E+00  1.04E+03  2.28E+00  5.53E+01  5.59E+00  1.80E-01
   1   13    8     7     2    1.470E+02   4.384E+00  1.426E+02  0.00E+00  0.00E+00  0.00E+00  1.03E+03  2.26E+00  5.52E+01  6.14E+00  2.38E-01
   1   13    7     7     3    1.426E+02   4.276E+00  1.383E+02  0.00E+00  0.00E+00  0.00E+00  1.03E+03  2.24E+00  5.51E+01  5.57E+00  2.56E-01
   1   13    6     8     1    1.390E+02   2.492E+00  1.365E+02  0.00E+00  0.00E+00  0.00E+00  1.02E+03  2.73E+00  3.96E+01  4.03E+00  2.06E-01
   1   13    5     8     2    1.365E+02  -3.026E-01  1.368E+02  0.00E+00  0.00E+00  0.00E+00  1.02E+03  2.72E+00  3.94E+01  4.02E+00 -2.51E-02
   1   13    4     8     3    1.368E+02  -2.170E+00  1.390E+02  0.00E+00  0.00E+00  0.00E+00  1.01E+03  2.73E+00  3.96E+01  4.03E+00 -1.79E-01
   1   13    3     8     4    1.390E+02  -2.532E+00  1.415E+02  0.00E+00  0.00E+00  0.00E+00  1.01E+03  2.75E+00  3.98E+01  4.06E+00 -2.08E-01
   1   13    2     8     5    1.415E+02  -9.423E-01  1.425E+02  0.00E+00  0.00E+00  0.00E+00  1.00E+03  2.76E+00  4.00E+01  4.08E+00 -7.70E-02
   1   13    1     8     6    1.425E+02   4.480E-01  1.420E+02  0.00E+00  0.00E+00  0.00E+00  9.95E+02  2.76E+00  4.00E+01  2.45E+00  6.10E-02



1
              HEAD IN LAYER   1 AT END OF TIME STEP  40 IN STRESS PERIOD    2
  ---------------------------------------------------------------------------

           1       2       3       4       5       6       7       8       9      10
 ...................................................................................
   1  1090.78 1083.32 6999.00 6999.00 6999.00 6999.00 6999.00 6999.00 6999.00 6999.00
   2  1083.26 1079.26 1071.41 6999.00 6999.00 1062.47 1062.00 1059.99 6999.00 6999.00
   3  6999.00 1068.38 1066.56 1063.04 1064.69 1065.09 1065.45 1061.47 6999.00 6999.00
   4  1050.12 1056.16 1058.43 1056.57 1055.92 1054.79 1056.13 1061.04 1055.85 6999.00
   5  1045.87 1048.68 1050.79 1051.10 1051.05 1051.31 1050.92 1052.40 1054.68 1055.49
   6  1041.04 1043.38 1045.44 1046.49 1046.76 1047.36 1048.24 1050.25 1050.68 1051.19
   7  1037.90 1039.20 1041.03 1042.27 1042.74 1043.58 1045.13 1046.66 1045.02 6999.00
   8  6999.00 1035.12 1036.70 1038.00 1038.59 1039.55 1040.47 1040.98 1038.75 6999.00
   9  6999.00 1030.40 1032.06 1033.53 1034.36 1035.54 1035.58 1035.12 1033.65 6999.00
  10  6999.00 1024.93 1026.91 1028.95 1030.09 1031.08 1031.38 1031.36 1030.77 1029.89
  11  6999.00 1017.74 1020.22 1024.01 1025.83 1027.39 1028.25 1029.33 1030.43 6999.00
  12  1000.47 1007.96 1013.42 1018.19 1021.58 1024.47 1026.51 1028.97 1032.29 6999.00
  13   994.45  999.87 1006.50 1012.64 1018.42 1023.99 1028.89 1034.05 1035.90 6999.00
  14  6999.00 1003.80 1008.68 1013.39 1018.55 1023.73 1029.28 1035.05 1039.32 6999.00
  15  6999.00 6999.00 1011.48 1014.64 1018.66 1021.94 6999.00 6999.00 6999.00 6999.00
1
  VOLUMETRIC BUDGET FOR ENTIRE MODEL AT END OF TIME STEP 40 IN STRESS PERIOD   2
  ------------------------------------------------------------------------------

     CUMULATIVE VOLUMES      L**3       RATES FOR THIS TIME STEP      L**3/T
     ------------------                 ------------------------

           IN:                                      IN:
           ---                                      ---
             STORAGE = 30230089700.0000               STORAGE =           0.0000
       CONSTANT HEAD =           0.0000         CONSTANT HEAD =           0.0000
               WELLS =           0.0000                 WELLS =           0.0000
                  ET =           0.0000                    ET =           0.0000
     HEAD DEP BOUNDS =   473984320.0000       HEAD DEP BOUNDS =           0.2157
            RECHARGE =  3906590720.0000              RECHARGE =           1.7937
      STREAM LEAKAGE =188401107000.0000        STREAM LEAKAGE =          49.6246

            TOTAL IN =223011766000.0000              TOTAL IN =          51.6340

          OUT:                                     OUT:
          ----                                     ----
             STORAGE = 27459108900.0000               STORAGE =          22.2135
       CONSTANT HEAD =           0.0000         CONSTANT HEAD =           0.0000
               WELLS =157787963000.0000                 WELLS =           0.0000
                  ET = 34912133100.0000                    ET =          22.5343
     HEAD DEP BOUNDS =   493480320.0000       HEAD DEP BOUNDS =           0.2452
            RECHARGE =           0.0000              RECHARGE =           0.0000
      STREAM LEAKAGE =  2360841980.0000        STREAM LEAKAGE =           6.6403

           TOTAL OUT =223013536000.0000             TOTAL OUT =          51.6333

            IN - OUT =    -1755968.0000              IN - OUT =       7.5927E-04

 PERCENT DISCREPANCY =           0.00     PERCENT DISCREPANCY =           0.00






          TIME SUMMARY AT END OF TIME STEP  40 IN STRESS PERIOD    2
                    SECONDS     MINUTES      HOURS       DAYS        YEARS
                    -----------------------------------------------------------
   TIME STEP LENGTH 5.57789E+07 9.29648E+05  15494.      645.59      1.7675    
 STRESS PERIOD TIME 6.00011E+08 1.00002E+07 1.66670E+05  6944.6      19.013    
         TOTAL TIME 2.17789E+09 3.62982E+07 6.04970E+05  25207.      69.013    
1
 
 SOLVING FOR HEAD 
    14 ITERATIONS FOR TIME STEP  41 IN STRESS PERIOD    2

 MAXIMUM HEAD CHANGE FOR EACH ITERATION:

    HEAD CHANGE   HEAD CHANGE   HEAD CHANGE   HEAD CHANGE   HEAD CHANGE
  LAYER,ROW,COL LAYER,ROW,COL LAYER,ROW,COL LAYER,ROW,COL LAYER,ROW,COL
 ----------------------------------------------------------------------
      3.197         1.536         1.484        0.7683        0.4539    
  (  1,  2,  8) (  1,  5,  8) (  1,  3,  4) (  1,  5,  8) (  1,  2,  3)
     0.1723        0.5226E-01    0.3675E-01    0.3031E-01    0.1207E-01
  (  1,  6,  8) (  1,  3,  4) (  1,  6,  5) (  1,  3,  4) (  1,  6,  8)
     0.3441E-02    0.1781E-02    0.1967E-02    0.7695E-03
  (  1,  2,  3) (  1,  4,  3) (  1,  3,  4) (  1,  6,  8)


 NO OUTPUT CONTROL FOR STRESS PERIOD    2   TIME STEP  41
 
 SOLVING FOR HEAD 
    14 ITERATIONS FOR TIME STEP  42 IN STRESS PERIOD    2

 MAXIMUM HEAD CHANGE FOR EACH ITERATION:

    HEAD CHANGE   HEAD CHANGE   HEAD CHANGE   HEAD CHANGE   HEAD CHANGE
  LAYER,ROW,COL LAYER,ROW,COL LAYER,ROW,COL LAYER,ROW,COL LAYER,ROW,COL
 ----------------------------------------------------------------------
      2.746         1.245         1.085        0.6503        0.3529    
  (  1,  4,  1) (  1,  6,  1) (  1,  5,  5) (  1, 10,  7) (  1, 10,  7)
     0.2106        0.6809E-01    0.3335E-01    0.1842E-01    0.1106E-01
  (  1, 11,  7) (  1, 11,  7) (  1, 11,  7) (  1, 11,  7) (  1, 11,  7)
     0.4529E-02    0.1874E-02    0.1163E-02    0.7211E-03
  (  1, 11,  7) (  1, 11,  7) (  1, 11,  7) (  1, 11,  7)


 NO OUTPUT CONTROL FOR STRESS PERIOD    2   TIME STEP  42
 
 SOLVING FOR HEAD 
    10 ITERATIONS FOR TIME STEP  43 IN STRESS PERIOD    2

 MAXIMUM HEAD CHANGE FOR EACH ITERATION:

    HEAD CHANGE   HEAD CHANGE   HEAD CHANGE   HEAD CHANGE   HEAD CHANGE
  LAYER,ROW,COL LAYER,ROW,COL LAYER,ROW,COL LAYER,ROW,COL LAYER,ROW,COL
 ----------------------------------------------------------------------
      2.134        0.9618        0.4711        0.1683        0.1102    
  (  1,  4,  1) (  1,  6,  1) (  1,  5,  3) (  1,  6,  2) (  1,  3,  4)
     0.1672E-01    0.8907E-02    0.3460E-02    0.2960E-02    0.4940E-03
  (  1, 10, 10) (  1,  2,  3) (  1,  4,  2) (  1,  3,  4) (  1,  4,  3)


 NO OUTPUT CONTROL FOR STRESS PERIOD    2   TIME STEP  43
 
 SOLVING FOR HEAD 
    10 ITERATIONS FOR TIME STEP  44 IN STRESS PERIOD    2

 MAXIMUM HEAD CHANGE FOR EACH ITERATION:

    HEAD CHANGE   HEAD CHANGE   HEAD CHANGE   HEAD CHANGE   HEAD CHANGE
  LAYER,ROW,COL LAYER,ROW,COL LAYER,ROW,COL LAYER,ROW,COL LAYER,ROW,COL
 ----------------------------------------------------------------------
      1.395        0.6169        0.2433        0.8782E-01    0.3837E-01
  (  1,  4,  1) (  1,  6,  1) (  1,  5,  1) (  1,  6,  2) (  1,  3,  4)
     0.9577E-02    0.3945E-02    0.1712E-02    0.1185E-02    0.2272E-03
  (  1, 10, 10) (  1,  2,  3) (  1,  5,  2) (  1,  3,  4) (  1,  4,  3)


 NO OUTPUT CONTROL FOR STRESS PERIOD    2   TIME STEP  44
 
 SOLVING FOR HEAD 
     8 ITERATIONS FOR TIME STEP  45 IN STRESS PERIOD    2

 MAXIMUM HEAD CHANGE FOR EACH ITERATION:

    HEAD CHANGE   HEAD CHANGE   HEAD CHANGE   HEAD CHANGE   HEAD CHANGE
  LAYER,ROW,COL LAYER,ROW,COL LAYER,ROW,COL LAYER,ROW,COL LAYER,ROW,COL
 ----------------------------------------------------------------------
     0.8090        0.3511        0.1297        0.4329E-01    0.1615E-01
  (  1,  7,  1) (  1,  6,  1) (  1,  5,  1) (  1,  5,  2) (  1,  3,  4)
     0.5819E-02    0.1794E-02    0.8577E-03
  (  1, 10, 10) (  1,  2,  3) (  1,  5,  2)


 OUTPUT CONTROL FOR STRESS PERIOD    2   TIME STEP  45
    PRINT BUDGET
    PRINT HEAD FOR ALL LAYERS
    SAVE BUDGET
 UBUDSV SAVING "              ET" ON UNIT 59 AT TIME STEP 45, STRESS PERIOD    2

  HEAD DEP BOUNDS   PERIOD    2   STEP  45
 BOUNDARY      1   LAYER   1   ROW    13   COL     1   RATE   -0.248173    
 BOUNDARY      2   LAYER   1   ROW    14   COL     9   RATE    0.215285    



   STREAM LEAKAGE   PERIOD    2   STEP  45

 LAYER ROW COL. STREAM  RCH.  FLOW INTO    FLOW TO  FLOW OUT OF  OVRLND.   DIRECT    STREAM    STREAM    STREAM    STREAM  STREAMBED  STREAMBED
                SEG.NO.  NO.  STRM. RCH.   AQUIFER   STRM. RCH.  RUNOFF    PRECIP      ET       HEAD      DEPTH     WIDTH  CONDCTNC.   GRADIENT

   1    1    1     1     1    2.500E+01   8.064E-01  2.419E+01  0.00E+00  0.00E+00  0.00E+00  1.09E+03  1.17E+00  1.30E+01  5.84E-01  4.60E-01
   1    2    2     1     2    2.419E+01   2.216E+00  2.198E+01  0.00E+00  0.00E+00  0.00E+00  1.09E+03  1.15E+00  1.27E+01  8.87E-01  8.33E-01
   1    3    3     1     3    2.198E+01   2.985E+00  1.899E+01  0.00E+00  0.00E+00  0.00E+00  1.08E+03  1.11E+00  1.21E+01  7.27E-01  1.37E+00
   1    3    4     1     4    1.899E+01   2.547E+00  1.645E+01  0.00E+00  0.00E+00  0.00E+00  1.08E+03  1.06E+00  1.13E+01  6.27E-01  1.35E+00
   1    4    5     2     1    6.446E+00   2.758E+00  3.688E+00  0.00E+00  0.00E+00  0.00E+00  1.07E+03  5.35E-01  1.20E+01  7.80E-01  1.18E+00
   1    5    6     2     2    3.688E+00   2.030E+00  1.658E+00  0.00E+00  0.00E+00  0.00E+00  1.07E+03  3.83E-01  1.20E+01  6.00E-01  1.13E+00
   1    6    6     2     3    1.658E+00   1.658E+00  0.000E+00  0.00E+00  0.00E+00  0.00E+00  1.06E+03  2.37E-01  1.20E+01  6.00E-01  1.08E+00
   1    7    6     2     4    0.000E+00   0.000E+00  0.000E+00  0.00E+00  0.00E+00  0.00E+00  1.06E+03  0.00E+00  1.20E+01  6.00E-01  1.00E+00
   1    8    6     2     5    0.000E+00   0.000E+00  0.000E+00  0.00E+00  0.00E+00  0.00E+00  1.05E+03  0.00E+00  1.20E+01  6.00E-01  1.00E+00
   1    3    5     3     1    1.000E+01   2.228E+00  7.772E+00  0.00E+00  0.00E+00  0.00E+00  1.08E+03  1.91E+00  9.64E+00  7.23E-01  1.54E+00
   1    3    6     3     2    7.772E+00   1.397E+00  6.375E+00  0.00E+00  0.00E+00  0.00E+00  1.07E+03  1.73E+00  8.91E+00  6.68E-01  1.05E+00
   1    3    7     3     3    6.375E+00   4.416E-01  5.933E+00  0.00E+00  0.00E+00  0.00E+00  1.07E+03  1.55E+00  8.22E+00  5.55E-01  3.98E-01
   1    4    8     3     4    5.933E+00   6.311E-01  5.302E+00  0.00E+00  0.00E+00  0.00E+00  1.07E+03  1.36E+00  7.45E+00  6.71E-01  4.70E-01
   1    5    8     3     5    5.302E+00   8.333E-01  4.469E+00  0.00E+00  0.00E+00  0.00E+00  1.06E+03  1.16E+00  6.65E+00  4.99E-01  8.35E-01
   1    6    8     3     6    4.469E+00   4.698E-01  3.999E+00  0.00E+00  0.00E+00  0.00E+00  1.06E+03  1.04E+00  6.15E+00  1.84E-01  1.27E+00
   1    5   10     4     1    1.000E+01   9.096E-01  9.090E+00  0.00E+00  0.00E+00  0.00E+00  1.08E+03  6.39E-01  1.00E+01  2.50E-01  1.21E+00
   1    5    9     4     2    9.090E+00   1.802E+00  7.289E+00  0.00E+00  0.00E+00  0.00E+00  1.07E+03  6.03E-01  1.00E+01  5.00E-01  1.20E+00
   1    6    8     4     3    7.289E+00   1.235E+00  6.054E+00  0.00E+00  0.00E+00  0.00E+00  1.06E+03  5.28E-01  1.00E+01  3.50E-01  1.18E+00
   1    6    8     5     1    1.005E+01  -2.187E-01  1.027E+01  0.00E+00  0.00E+00  0.00E+00  1.06E+03  6.75E-01  1.53E+01  6.11E-01 -1.19E-01
   1    7    7     5     2    1.027E+01   7.843E-01  9.487E+00  0.00E+00  0.00E+00  0.00E+00  1.05E+03  6.69E-01  1.50E+01  7.51E-01  3.48E-01
   1    8    7     5     3    9.487E+00   1.060E+00  8.427E+00  0.00E+00  0.00E+00  0.00E+00  1.05E+03  6.46E-01  1.42E+01  4.96E-01  7.13E-01
   1    8    6     5     4    8.427E+00   1.718E-01  8.255E+00  0.00E+00  0.00E+00  0.00E+00  1.05E+03  6.30E-01  1.36E+01  3.39E-01  1.69E-01
   1    9    6     6     1    8.255E+00   1.402E+00  6.854E+00  0.00E+00  0.00E+00  0.00E+00  1.04E+03  5.96E-01  1.20E+01  6.00E-01  7.79E-01
   1   10    7     6     2    6.854E+00   1.352E+00  5.502E+00  0.00E+00  0.00E+00  0.00E+00  1.04E+03  5.28E-01  1.20E+01  6.00E-01  7.51E-01
   1   11    7     6     3    5.502E+00   1.227E+00  4.274E+00  0.00E+00  0.00E+00  0.00E+00  1.03E+03  4.59E-01  1.20E+01  6.00E-01  6.82E-01
   1   12    7     6     4    4.274E+00   5.694E-01  3.705E+00  0.00E+00  0.00E+00  0.00E+00  1.03E+03  4.06E-01  1.20E+01  6.00E-01  3.16E-01
   1   13    7     6     5    3.705E+00  -6.654E-01  4.370E+00  0.00E+00  0.00E+00  0.00E+00  1.03E+03  4.09E-01  1.20E+01  2.40E-01 -9.24E-01
   1   14    9     7     1    1.500E+02   2.960E+00  1.470E+02  0.00E+00  0.00E+00  0.00E+00  1.04E+03  2.28E+00  5.53E+01  5.59E+00  1.76E-01
   1   13    8     7     2    1.470E+02   4.065E+00  1.430E+02  0.00E+00  0.00E+00  0.00E+00  1.03E+03  2.26E+00  5.52E+01  6.14E+00  2.21E-01
   1   13    7     7     3    1.430E+02   3.199E+00  1.398E+02  0.00E+00  0.00E+00  0.00E+00  1.03E+03  2.25E+00  5.51E+01  5.57E+00  1.91E-01
   1   13    6     8     1    1.441E+02   1.579E+00  1.426E+02  0.00E+00  0.00E+00  0.00E+00  1.02E+03  2.77E+00  4.02E+01  4.09E+00  1.29E-01
   1   13    5     8     2    1.426E+02  -1.240E+00  1.438E+02  0.00E+00  0.00E+00  0.00E+00  1.02E+03  2.77E+00  4.01E+01  4.09E+00 -1.01E-01
   1   13    4     8     3    1.438E+02  -2.952E+00  1.468E+02  0.00E+00  0.00E+00  0.00E+00  1.01E+03  2.78E+00  4.04E+01  4.11E+00 -2.39E-01
   1   13    3     8     4    1.468E+02  -3.039E+00  1.498E+02  0.00E+00  0.00E+00  0.00E+00  1.01E+03  2.80E+00  4.07E+01  4.14E+00 -2.44E-01
   1   13    2     8     5    1.498E+02  -1.107E+00  1.509E+02  0.00E+00  0.00E+00  0.00E+00  1.00E+03  2.82E+00  4.09E+01  4.17E+00 -8.85E-02
   1   13    1     8     6    1.509E+02   4.150E-01  1.505E+02  0.00E+00  0.00E+00  0.00E+00  9.95E+02  2.82E+00  4.09E+01  2.50E+00  5.53E-02



1
              HEAD IN LAYER   1 AT END OF TIME STEP  45 IN STRESS PERIOD    2
  ---------------------------------------------------------------------------

           1       2       3       4       5       6       7       8       9      10
 ...................................................................................
   1  1092.84 1089.39 6999.00 6999.00 6999.00 6999.00 6999.00 6999.00 6999.00 6999.00
   2  1089.82 1086.71 1081.38 6999.00 6999.00 1071.39 1070.65 1070.21 6999.00 6999.00
   3  6999.00 1079.21 1077.45 1073.52 1072.46 1070.55 1069.08 1068.26 6999.00 6999.00
   4  1067.59 1069.96 1069.96 1066.91 1065.36 1063.53 1063.79 1065.88 1065.82 6999.00
   5  1063.51 1063.17 1062.58 1061.31 1060.68 1060.65 1060.12 1061.95 1065.56 1067.93
   6  1058.56 1057.60 1056.82 1056.24 1056.13 1056.74 1057.11 1059.03 1061.76 1065.28
   7  1054.96 1052.38 1051.42 1051.04 1051.13 1051.75 1053.12 1055.39 1056.26 6999.00
   8  6999.00 1045.86 1045.49 1045.42 1045.65 1046.37 1047.76 1049.69 1050.02 6999.00
   9  6999.00 1038.74 1038.96 1039.39 1039.96 1040.99 1041.57 1042.65 1043.54 6999.00
  10  6999.00 1030.88 1031.69 1033.19 1034.26 1035.39 1036.46 1037.41 1038.73 1040.35
  11  6999.00 1021.31 1023.04 1026.80 1028.66 1030.45 1032.05 1033.42 1035.38 6999.00
  12  1001.14 1009.20 1014.49 1019.60 1023.11 1026.16 1028.55 1030.33 1034.17 6999.00
  13   994.53  999.96 1006.66 1012.88 1018.70 1024.26 1029.09 1034.10 1036.12 6999.00
  14  6999.00 1004.00 1008.94 1013.68 1018.87 1024.02 1029.47 1035.09 1039.33 6999.00
  15  6999.00 6999.00 1011.87 1015.05 1019.08 1022.35 6999.00 6999.00 6999.00 6999.00
1
  VOLUMETRIC BUDGET FOR ENTIRE MODEL AT END OF TIME STEP 45 IN STRESS PERIOD   2
  ------------------------------------------------------------------------------

     CUMULATIVE VOLUMES      L**3       RATES FOR THIS TIME STEP      L**3/T
     ------------------                 ------------------------

           IN:                                      IN:
           ---                                      ---
             STORAGE = 30230089700.0000               STORAGE =           0.0000
       CONSTANT HEAD =           0.0000         CONSTANT HEAD =           0.0000
               WELLS =           0.0000                 WELLS =           0.0000
                  ET =           0.0000                    ET =           0.0000
     HEAD DEP BOUNDS =   554670336.0000       HEAD DEP BOUNDS =           0.2153
            RECHARGE =  4578510340.0000              RECHARGE =           1.7937
      STREAM LEAKAGE =205579993000.0000        STREAM LEAKAGE =          43.7321

            TOTAL IN =240943268000.0000              TOTAL IN =          45.7411

          OUT:                                     OUT:
          ----                                     ----
             STORAGE = 30162542600.0000               STORAGE =           0.9404
       CONSTANT HEAD =           0.0000         CONSTANT HEAD =           0.0000
               WELLS =157787963000.0000                 WELLS =           0.0000
                  ET = 46792093700.0000                    ET =          35.3277
     HEAD DEP BOUNDS =   586121216.0000       HEAD DEP BOUNDS =           0.2482
            RECHARGE =           0.0000              RECHARGE =           0.0000
      STREAM LEAKAGE =  5615419390.0000        STREAM LEAKAGE =           9.2210

           TOTAL OUT =240944136000.0000             TOTAL OUT =          45.7373

            IN - OUT =     -876800.0000              IN - OUT =       3.8239E-03

 PERCENT DISCREPANCY =           0.00     PERCENT DISCREPANCY =           0.01






          TIME SUMMARY AT END OF TIME STEP  45 IN STRESS PERIOD    2
                    SECONDS     MINUTES      HOURS       DAYS        YEARS
                    -----------------------------------------------------------
   TIME STEP LENGTH 8.98324E+07 1.49721E+06  24953.      1039.7      2.8466    
 STRESS PERIOD TIME 9.74600E+08 1.62433E+07 2.70722E+05  11280.      30.883    
         TOTAL TIME 2.55248E+09 4.25413E+07 7.09022E+05  29543.      80.883    
1
 
 SOLVING FOR HEAD 
     7 ITERATIONS FOR TIME STEP  46 IN STRESS PERIOD    2

 MAXIMUM HEAD CHANGE FOR EACH ITERATION:

    HEAD CHANGE   HEAD CHANGE   HEAD CHANGE   HEAD CHANGE   HEAD CHANGE
  LAYER,ROW,COL LAYER,ROW,COL LAYER,ROW,COL LAYER,ROW,COL LAYER,ROW,COL
 ----------------------------------------------------------------------
     0.4560        0.1830        0.6599E-01    0.2135E-01    0.7250E-02
  (  1, 10, 10) (  1,  6,  1) (  1,  5,  1) (  1,  5,  2) (  1,  3,  4)
     0.3400E-02    0.8397E-03
  (  1, 10, 10) (  1,  2,  3)


 OUTPUT CONTROL FOR STRESS PERIOD    2   TIME STEP  46
    PRINT BUDGET
    PRINT HEAD FOR ALL LAYERS
    SAVE BUDGET
 UBUDSV SAVING "              ET" ON UNIT 59 AT TIME STEP 46, STRESS PERIOD    2

  HEAD DEP BOUNDS   PERIOD    2   STEP  46
 BOUNDARY      1   LAYER   1   ROW    13   COL     1   RATE   -0.248258    
 BOUNDARY      2   LAYER   1   ROW    14   COL     9   RATE    0.215268    



   STREAM LEAKAGE   PERIOD    2   STEP  46

 LAYER ROW COL. STREAM  RCH.  FLOW INTO    FLOW TO  FLOW OUT OF  OVRLND.   DIRECT    STREAM    STREAM    STREAM    STREAM  STREAMBED  STREAMBED
                SEG.NO.  NO.  STRM. RCH.   AQUIFER   STRM. RCH.  RUNOFF    PRECIP      ET       HEAD      DEPTH     WIDTH  CONDCTNC.   GRADIENT

   1    1    1     1     1    2.500E+01   7.982E-01  2.420E+01  0.00E+00  0.00E+00  0.00E+00  1.09E+03  1.17E+00  1.30E+01  5.84E-01  4.55E-01
   1    2    2     1     2    2.420E+01   2.175E+00  2.203E+01  0.00E+00  0.00E+00  0.00E+00  1.09E+03  1.15E+00  1.27E+01  8.88E-01  8.17E-01
   1    3    3     1     3    2.203E+01   2.988E+00  1.904E+01  0.00E+00  0.00E+00  0.00E+00  1.08E+03  1.11E+00  1.21E+01  7.27E-01  1.37E+00
   1    3    4     1     4    1.904E+01   2.551E+00  1.649E+01  0.00E+00  0.00E+00  0.00E+00  1.08E+03  1.06E+00  1.13E+01  6.28E-01  1.35E+00
   1    4    5     2     1    6.488E+00   2.759E+00  3.728E+00  0.00E+00  0.00E+00  0.00E+00  1.07E+03  5.38E-01  1.20E+01  7.80E-01  1.18E+00
   1    5    6     2     2    3.728E+00   2.031E+00  1.697E+00  0.00E+00  0.00E+00  0.00E+00  1.07E+03  3.86E-01  1.20E+01  6.00E-01  1.13E+00
   1    6    6     2     3    1.697E+00   1.697E+00  0.000E+00  0.00E+00  0.00E+00  0.00E+00  1.06E+03  2.40E-01  1.20E+01  6.00E-01  1.08E+00
   1    7    6     2     4    0.000E+00   0.000E+00  0.000E+00  0.00E+00  0.00E+00  0.00E+00  1.06E+03  0.00E+00  1.20E+01  6.00E-01  1.00E+00
   1    8    6     2     5    0.000E+00   0.000E+00  0.000E+00  0.00E+00  0.00E+00  0.00E+00  1.05E+03  0.00E+00  1.20E+01  6.00E-01  1.00E+00
   1    3    5     3     1    1.000E+01   2.202E+00  7.798E+00  0.00E+00  0.00E+00  0.00E+00  1.08E+03  1.91E+00  9.64E+00  7.23E-01  1.52E+00
   1    3    6     3     2    7.798E+00   1.383E+00  6.415E+00  0.00E+00  0.00E+00  0.00E+00  1.07E+03  1.73E+00  8.91E+00  6.68E-01  1.03E+00
   1    3    7     3     3    6.415E+00   4.286E-01  5.986E+00  0.00E+00  0.00E+00  0.00E+00  1.07E+03  1.55E+00  8.22E+00  5.55E-01  3.86E-01
   1    4    8     3     4    5.986E+00   6.165E-01  5.369E+00  0.00E+00  0.00E+00  0.00E+00  1.07E+03  1.36E+00  7.45E+00  6.71E-01  4.59E-01
   1    5    8     3     5    5.369E+00   8.110E-01  4.558E+00  0.00E+00  0.00E+00  0.00E+00  1.06E+03  1.16E+00  6.65E+00  4.99E-01  8.12E-01
   1    6    8     3     6    4.558E+00   4.624E-01  4.096E+00  0.00E+00  0.00E+00  0.00E+00  1.06E+03  1.04E+00  6.15E+00  1.84E-01  1.25E+00
   1    5   10     4     1    1.000E+01   9.096E-01  9.090E+00  0.00E+00  0.00E+00  0.00E+00  1.08E+03  6.39E-01  1.00E+01  2.50E-01  1.21E+00
   1    5    9     4     2    9.090E+00   1.802E+00  7.289E+00  0.00E+00  0.00E+00  0.00E+00  1.07E+03  6.03E-01  1.00E+01  5.00E-01  1.20E+00
   1    6    8     4     3    7.289E+00   1.235E+00  6.054E+00  0.00E+00  0.00E+00  0.00E+00  1.06E+03  5.28E-01  1.00E+01  3.50E-01  1.18E+00
   1    6    8     5     1    1.015E+01  -2.432E-01  1.039E+01  0.00E+00  0.00E+00  0.00E+00  1.06E+03  6.78E-01  1.54E+01  6.15E-01 -1.32E-01
   1    7    7     5     2    1.039E+01   7.602E-01  9.633E+00  0.00E+00  0.00E+00  0.00E+00  1.05E+03  6.72E-01  1.51E+01  7.57E-01  3.35E-01
   1    8    7     5     3    9.633E+00   1.051E+00  8.582E+00  0.00E+00  0.00E+00  0.00E+00  1.05E+03  6.50E-01  1.43E+01  5.01E-01  7.00E-01
   1    8    6     5     4    8.582E+00   1.597E-01  8.422E+00  0.00E+00  0.00E+00  0.00E+00  1.05E+03  6.34E-01  1.37E+01  3.43E-01  1.55E-01
   1    9    6     6     1    8.422E+00   1.386E+00  7.037E+00  0.00E+00  0.00E+00  0.00E+00  1.04E+03  6.04E-01  1.20E+01  6.00E-01  7.70E-01
   1   10    7     6     2    7.037E+00   1.339E+00  5.697E+00  0.00E+00  0.00E+00  0.00E+00  1.04E+03  5.37E-01  1.20E+01  6.00E-01  7.44E-01
   1   11    7     6     3    5.697E+00   1.221E+00  4.477E+00  0.00E+00  0.00E+00  0.00E+00  1.03E+03  4.70E-01  1.20E+01  6.00E-01  6.78E-01
   1   12    7     6     4    4.477E+00   5.691E-01  3.908E+00  0.00E+00  0.00E+00  0.00E+00  1.03E+03  4.18E-01  1.20E+01  6.00E-01  3.16E-01
   1   13    7     6     5    3.908E+00  -6.629E-01  4.570E+00  0.00E+00  0.00E+00  0.00E+00  1.03E+03  4.21E-01  1.20E+01  2.40E-01 -9.21E-01
   1   14    9     7     1    1.500E+02   2.958E+00  1.470E+02  0.00E+00  0.00E+00  0.00E+00  1.04E+03  2.28E+00  5.53E+01  5.59E+00  1.76E-01
   1   13    8     7     2    1.470E+02   4.059E+00  1.430E+02  0.00E+00  0.00E+00  0.00E+00  1.03E+03  2.26E+00  5.52E+01  6.14E+00  2.20E-01
   1   13    7     7     3    1.430E+02   3.189E+00  1.398E+02  0.00E+00  0.00E+00  0.00E+00  1.03E+03  2.25E+00  5.51E+01  5.57E+00  1.91E-01
   1   13    6     8     1    1.444E+02   1.573E+00  1.428E+02  0.00E+00  0.00E+00  0.00E+00  1.02E+03  2.77E+00  4.02E+01  4.09E+00  1.28E-01
   1   13    5     8     2    1.428E+02  -1.248E+00  1.440E+02  0.00E+00  0.00E+00  0.00E+00  1.02E+03  2.77E+00  4.02E+01  4.09E+00 -1.02E-01
   1   13    4     8     3    1.440E+02  -2.960E+00  1.470E+02  0.00E+00  0.00E+00  0.00E+00  1.01E+03  2.79E+00  4.04E+01  4.12E+00 -2.40E-01
   1   13    3     8     4    1.470E+02  -3.045E+00  1.500E+02  0.00E+00  0.00E+00  0.00E+00  1.01E+03  2.81E+00  4.07E+01  4.15E+00 -2.45E-01
   1   13    2     8     5    1.500E+02  -1.110E+00  1.512E+02  0.00E+00  0.00E+00  0.00E+00  1.00E+03  2.82E+00  4.09E+01  4.17E+00 -8.87E-02
   1   13    1     8     6    1.512E+02   4.138E-01  1.507E+02  0.00E+00  0.00E+00  0.00E+00  9.95E+02  2.82E+00  4.09E+01  2.50E+00  5.51E-02



1
              HEAD IN LAYER   1 AT END OF TIME STEP  46 IN STRESS PERIOD    2
  ---------------------------------------------------------------------------

           1       2       3       4       5       6       7       8       9      10
 ...................................................................................
   1  1092.86 1089.43 6999.00 6999.00 6999.00 6999.00 6999.00 6999.00 6999.00 6999.00
   2  1089.87 1086.76 1081.49 6999.00 6999.00 1071.47 1070.75 1070.35 6999.00 6999.00
   3  6999.00 1079.37 1077.58 1073.63 1072.50 1070.57 1069.10 1068.33 6999.00 6999.00
   4  1068.23 1070.32 1070.14 1067.03 1065.44 1063.60 1063.84 1065.90 1065.91 6999.00
   5  1064.18 1063.60 1062.80 1061.44 1060.77 1060.72 1060.18 1061.99 1065.64 1068.06
   6  1059.26 1058.04 1057.05 1056.35 1056.22 1056.82 1057.17 1059.07 1061.86 1065.47
   7  1055.66 1052.79 1051.63 1051.14 1051.21 1051.81 1053.17 1055.43 1056.40 6999.00
   8  6999.00 1046.15 1045.65 1045.49 1045.71 1046.42 1047.80 1049.78 1050.24 6999.00
   9  6999.00 1038.94 1039.07 1039.45 1040.01 1041.02 1041.61 1042.77 1043.82 6999.00
  10  6999.00 1031.01 1031.75 1033.23 1034.30 1035.42 1036.49 1037.53 1039.04 1040.96
  11  6999.00 1021.39 1023.07 1026.82 1028.69 1030.47 1032.07 1033.50 1035.55 6999.00
  12  1001.16 1009.23 1014.51 1019.61 1023.13 1026.17 1028.56 1030.35 1034.24 6999.00
  13   994.53  999.96 1006.67 1012.88 1018.70 1024.26 1029.09 1034.10 1036.12 6999.00
  14  6999.00 1004.01 1008.95 1013.69 1018.88 1024.03 1029.48 1035.09 1039.34 6999.00
  15  6999.00 6999.00 1011.90 1015.08 1019.10 1022.37 6999.00 6999.00 6999.00 6999.00
1
  VOLUMETRIC BUDGET FOR ENTIRE MODEL AT END OF TIME STEP 46 IN STRESS PERIOD   2
  ------------------------------------------------------------------------------

     CUMULATIVE VOLUMES      L**3       RATES FOR THIS TIME STEP      L**3/T
     ------------------                 ------------------------

           IN:                                      IN:
           ---                                      ---
             STORAGE = 30230089700.0000               STORAGE =           0.0000
       CONSTANT HEAD =           0.0000         CONSTANT HEAD =           0.0000
               WELLS =           0.0000                 WELLS =           0.0000
                  ET =           0.0000                    ET =           0.0000
     HEAD DEP BOUNDS =   575942144.0000       HEAD DEP BOUNDS =           0.2153
            RECHARGE =  4755761150.0000              RECHARGE =           1.7937
      STREAM LEAKAGE =209881350000.0000        STREAM LEAKAGE =          43.5291

            TOTAL IN =245443150000.0000              TOTAL IN =          45.5381

          OUT:                                     OUT:
          ----                                     ----
             STORAGE = 30200627200.0000               STORAGE =           0.3854
       CONSTANT HEAD =           0.0000         CONSTANT HEAD =           0.0000
               WELLS =157787963000.0000                 WELLS =           0.0000
                  ET = 50313052200.0000                    ET =          35.6316
     HEAD DEP BOUNDS =   610652992.0000       HEAD DEP BOUNDS =           0.2483
            RECHARGE =           0.0000              RECHARGE =           0.0000
      STREAM LEAKAGE =  6531320830.0000        STREAM LEAKAGE =           9.2688

           TOTAL OUT =245443609000.0000             TOTAL OUT =          45.5340

            IN - OUT =     -473408.0000              IN - OUT =       4.0625E-03

 PERCENT DISCREPANCY =           0.00     PERCENT DISCREPANCY =           0.01






          TIME SUMMARY AT END OF TIME STEP  46 IN STRESS PERIOD    2
                    SECONDS     MINUTES      HOURS       DAYS        YEARS
                    -----------------------------------------------------------
   TIME STEP LENGTH 9.88157E+07 1.64693E+06  27449.      1143.7      3.1313    
 STRESS PERIOD TIME 1.07342E+09 1.78903E+07 2.98171E+05  12424.      34.014    
         TOTAL TIME 2.65129E+09 4.41883E+07 7.36471E+05  30686.      84.014    
1
 
 SOLVING FOR HEAD 
     7 ITERATIONS FOR TIME STEP  47 IN STRESS PERIOD    2

 MAXIMUM HEAD CHANGE FOR EACH ITERATION:

    HEAD CHANGE   HEAD CHANGE   HEAD CHANGE   HEAD CHANGE   HEAD CHANGE
  LAYER,ROW,COL LAYER,ROW,COL LAYER,ROW,COL LAYER,ROW,COL LAYER,ROW,COL
 ----------------------------------------------------------------------
     0.2469        0.8890E-01    0.3203E-01    0.1022E-01    0.3259E-02
  (  1, 10, 10) (  1,  6,  1) (  1,  6,  1) (  1,  6,  1) (  1,  6,  2)
     0.1905E-02    0.3927E-03
  (  1, 10, 10) (  1,  2,  3)


 OUTPUT CONTROL FOR STRESS PERIOD    2   TIME STEP  47
    PRINT BUDGET
    PRINT HEAD FOR ALL LAYERS
    SAVE BUDGET
 UBUDSV SAVING "              ET" ON UNIT 59 AT TIME STEP 47, STRESS PERIOD    2

  HEAD DEP BOUNDS   PERIOD    2   STEP  47
 BOUNDARY      1   LAYER   1   ROW    13   COL     1   RATE   -0.248290    
 BOUNDARY      2   LAYER   1   ROW    14   COL     9   RATE    0.215262    



   STREAM LEAKAGE   PERIOD    2   STEP  47

 LAYER ROW COL. STREAM  RCH.  FLOW INTO    FLOW TO  FLOW OUT OF  OVRLND.   DIRECT    STREAM    STREAM    STREAM    STREAM  STREAMBED  STREAMBED
                SEG.NO.  NO.  STRM. RCH.   AQUIFER   STRM. RCH.  RUNOFF    PRECIP      ET       HEAD      DEPTH     WIDTH  CONDCTNC.   GRADIENT

   1    1    1     1     1    2.500E+01   7.950E-01  2.420E+01  0.00E+00  0.00E+00  0.00E+00  1.09E+03  1.17E+00  1.30E+01  5.84E-01  4.54E-01
   1    2    2     1     2    2.420E+01   2.157E+00  2.205E+01  0.00E+00  0.00E+00  0.00E+00  1.09E+03  1.15E+00  1.27E+01  8.88E-01  8.10E-01
   1    3    3     1     3    2.205E+01   2.990E+00  1.906E+01  0.00E+00  0.00E+00  0.00E+00  1.08E+03  1.11E+00  1.21E+01  7.28E-01  1.37E+00
   1    3    4     1     4    1.906E+01   2.552E+00  1.651E+01  0.00E+00  0.00E+00  0.00E+00  1.08E+03  1.06E+00  1.13E+01  6.28E-01  1.35E+00
   1    4    5     2     1    6.506E+00   2.760E+00  3.746E+00  0.00E+00  0.00E+00  0.00E+00  1.07E+03  5.38E-01  1.20E+01  7.80E-01  1.18E+00
   1    5    6     2     2    3.746E+00   2.032E+00  1.714E+00  0.00E+00  0.00E+00  0.00E+00  1.07E+03  3.87E-01  1.20E+01  6.00E-01  1.13E+00
   1    6    6     2     3    1.714E+00   1.714E+00  0.000E+00  0.00E+00  0.00E+00  0.00E+00  1.06E+03  2.42E-01  1.20E+01  6.00E-01  1.08E+00
   1    7    6     2     4    0.000E+00   0.000E+00  0.000E+00  0.00E+00  0.00E+00  0.00E+00  1.06E+03  0.00E+00  1.20E+01  6.00E-01  1.00E+00
   1    8    6     2     5    0.000E+00   0.000E+00  0.000E+00  0.00E+00  0.00E+00  0.00E+00  1.05E+03  0.00E+00  1.20E+01  6.00E-01  1.00E+00
   1    3    5     3     1    1.000E+01   2.192E+00  7.808E+00  0.00E+00  0.00E+00  0.00E+00  1.08E+03  1.91E+00  9.64E+00  7.23E-01  1.52E+00
   1    3    6     3     2    7.808E+00   1.377E+00  6.431E+00  0.00E+00  0.00E+00  0.00E+00  1.07E+03  1.73E+00  8.91E+00  6.68E-01  1.03E+00
   1    3    7     3     3    6.431E+00   4.236E-01  6.008E+00  0.00E+00  0.00E+00  0.00E+00  1.07E+03  1.55E+00  8.22E+00  5.55E-01  3.82E-01
   1    4    8     3     4    6.008E+00   6.110E-01  5.397E+00  0.00E+00  0.00E+00  0.00E+00  1.07E+03  1.36E+00  7.45E+00  6.71E-01  4.55E-01
   1    5    8     3     5    5.397E+00   8.025E-01  4.594E+00  0.00E+00  0.00E+00  0.00E+00  1.06E+03  1.16E+00  6.65E+00  4.99E-01  8.04E-01
   1    6    8     3     6    4.594E+00   4.596E-01  4.134E+00  0.00E+00  0.00E+00  0.00E+00  1.06E+03  1.04E+00  6.15E+00  1.84E-01  1.25E+00
   1    5   10     4     1    1.000E+01   9.096E-01  9.090E+00  0.00E+00  0.00E+00  0.00E+00  1.08E+03  6.39E-01  1.00E+01  2.50E-01  1.21E+00
   1    5    9     4     2    9.090E+00   1.802E+00  7.289E+00  0.00E+00  0.00E+00  0.00E+00  1.07E+03  6.03E-01  1.00E+01  5.00E-01  1.20E+00
   1    6    8     4     3    7.289E+00   1.235E+00  6.054E+00  0.00E+00  0.00E+00  0.00E+00  1.06E+03  5.28E-01  1.00E+01  3.50E-01  1.18E+00
   1    6    8     5     1    1.019E+01  -2.528E-01  1.044E+01  0.00E+00  0.00E+00  0.00E+00  1.06E+03  6.79E-01  1.54E+01  6.16E-01 -1.37E-01
   1    7    7     5     2    1.044E+01   7.504E-01  9.691E+00  0.00E+00  0.00E+00  0.00E+00  1.05E+03  6.73E-01  1.52E+01  7.59E-01  3.29E-01
   1    8    7     5     3    9.691E+00   1.047E+00  8.644E+00  0.00E+00  0.00E+00  0.00E+00  1.05E+03  6.51E-01  1.44E+01  5.03E-01  6.94E-01
   1    8    6     5     4    8.644E+00   1.546E-01  8.489E+00  0.00E+00  0.00E+00  0.00E+00  1.05E+03  6.36E-01  1.38E+01  3.45E-01  1.49E-01
   1    9    6     6     1    8.489E+00   1.379E+00  7.111E+00  0.00E+00  0.00E+00  0.00E+00  1.04E+03  6.07E-01  1.20E+01  6.00E-01  7.66E-01
   1   10    7     6     2    7.111E+00   1.334E+00  5.777E+00  0.00E+00  0.00E+00  0.00E+00  1.04E+03  5.41E-01  1.20E+01  6.00E-01  7.41E-01
   1   11    7     6     3    5.777E+00   1.218E+00  4.559E+00  0.00E+00  0.00E+00  0.00E+00  1.03E+03  4.74E-01  1.20E+01  6.00E-01  6.77E-01
   1   12    7     6     4    4.559E+00   5.688E-01  3.990E+00  0.00E+00  0.00E+00  0.00E+00  1.03E+03  4.23E-01  1.20E+01  6.00E-01  3.16E-01
   1   13    7     6     5    3.990E+00  -6.619E-01  4.652E+00  0.00E+00  0.00E+00  0.00E+00  1.03E+03  4.26E-01  1.20E+01  2.40E-01 -9.19E-01
   1   14    9     7     1    1.500E+02   2.956E+00  1.470E+02  0.00E+00  0.00E+00  0.00E+00  1.04E+03  2.28E+00  5.53E+01  5.59E+00  1.76E-01
   1   13    8     7     2    1.470E+02   4.056E+00  1.430E+02  0.00E+00  0.00E+00  0.00E+00  1.03E+03  2.26E+00  5.52E+01  6.14E+00  2.20E-01
   1   13    7     7     3    1.430E+02   3.185E+00  1.398E+02  0.00E+00  0.00E+00  0.00E+00  1.03E+03  2.25E+00  5.51E+01  5.57E+00  1.91E-01
   1   13    6     8     1    1.445E+02   1.570E+00  1.429E+02  0.00E+00  0.00E+00  0.00E+00  1.02E+03  2.77E+00  4.02E+01  4.10E+00  1.28E-01
   1   13    5     8     2    1.429E+02  -1.251E+00  1.441E+02  0.00E+00  0.00E+00  0.00E+00  1.02E+03  2.77E+00  4.02E+01  4.09E+00 -1.02E-01
   1   13    4     8     3    1.441E+02  -2.964E+00  1.471E+02  0.00E+00  0.00E+00  0.00E+00  1.01E+03  2.79E+00  4.04E+01  4.12E+00 -2.40E-01
   1   13    3     8     4    1.471E+02  -3.048E+00  1.501E+02  0.00E+00  0.00E+00  0.00E+00  1.01E+03  2.81E+00  4.07E+01  4.15E+00 -2.45E-01
   1   13    2     8     5    1.501E+02  -1.111E+00  1.513E+02  0.00E+00  0.00E+00  0.00E+00  1.00E+03  2.82E+00  4.09E+01  4.17E+00 -8.88E-02
   1   13    1     8     6    1.513E+02   4.136E-01  1.508E+02  0.00E+00  0.00E+00  0.00E+00  9.95E+02  2.82E+00  4.10E+01  2.50E+00  5.51E-02



1
              HEAD IN LAYER   1 AT END OF TIME STEP  47 IN STRESS PERIOD    2
  ---------------------------------------------------------------------------

           1       2       3       4       5       6       7       8       9      10
 ...................................................................................
   1  1092.86 1089.45 6999.00 6999.00 6999.00 6999.00 6999.00 6999.00 6999.00 6999.00
   2  1089.89 1086.78 1081.53 6999.00 6999.00 1071.50 1070.78 1070.40 6999.00 6999.00
   3  6999.00 1079.45 1077.64 1073.67 1072.51 1070.58 1069.11 1068.35 6999.00 6999.00
   4  1068.54 1070.49 1070.23 1067.08 1065.48 1063.63 1063.86 1065.91 1065.94 6999.00
   5  1064.51 1063.80 1062.90 1061.49 1060.80 1060.75 1060.20 1062.01 1065.67 1068.11
   6  1059.59 1058.25 1057.15 1056.40 1056.26 1056.85 1057.19 1059.09 1061.90 1065.54
   7  1056.00 1052.98 1051.72 1051.18 1051.24 1051.84 1053.19 1055.45 1056.45 6999.00
   8  6999.00 1046.28 1045.72 1045.53 1045.74 1046.44 1047.82 1049.82 1050.34 6999.00
   9  6999.00 1039.03 1039.11 1039.47 1040.03 1041.04 1041.63 1042.82 1043.94 6999.00
  10  6999.00 1031.07 1031.77 1033.25 1034.31 1035.43 1036.50 1037.58 1039.19 1041.29
  11  6999.00 1021.42 1023.09 1026.83 1028.70 1030.48 1032.08 1033.53 1035.64 6999.00
  12  1001.17 1009.24 1014.51 1019.62 1023.13 1026.18 1028.57 1030.37 1034.27 6999.00
  13   994.53  999.96 1006.67 1012.88 1018.70 1024.26 1029.09 1034.10 1036.13 6999.00
  14  6999.00 1004.01 1008.95 1013.70 1018.89 1024.03 1029.48 1035.09 1039.34 6999.00
  15  6999.00 6999.00 1011.91 1015.09 1019.12 1022.38 6999.00 6999.00 6999.00 6999.00
1
  VOLUMETRIC BUDGET FOR ENTIRE MODEL AT END OF TIME STEP 47 IN STRESS PERIOD   2
  ------------------------------------------------------------------------------

     CUMULATIVE VOLUMES      L**3       RATES FOR THIS TIME STEP      L**3/T
     ------------------                 ------------------------

           IN:                                      IN:
           ---                                      ---
             STORAGE = 30230089700.0000               STORAGE =           0.0000
       CONSTANT HEAD =           0.0000         CONSTANT HEAD =           0.0000
               WELLS =           0.0000                 WELLS =           0.0000
                  ET =           0.0000                    ET =           0.0000
     HEAD DEP BOUNDS =   599340544.0000       HEAD DEP BOUNDS =           0.2153
            RECHARGE =  4950736900.0000              RECHARGE =           1.7937
      STREAM LEAKAGE =214603678000.0000        STREAM LEAKAGE =          43.4448

            TOTAL IN =250383843000.0000              TOTAL IN =          45.4538

          OUT:                                     OUT:
          ----                                     ----
             STORAGE = 30217619500.0000               STORAGE =           0.1563
       CONSTANT HEAD =           0.0000         CONSTANT HEAD =           0.0000
               WELLS =157787963000.0000                 WELLS =           0.0000
                  ET = 54199902200.0000                    ET =          35.7585
     HEAD DEP BOUNDS =   637641472.0000       HEAD DEP BOUNDS =           0.2483
            RECHARGE =           0.0000              RECHARGE =           0.0000
      STREAM LEAKAGE =  7540983300.0000        STREAM LEAKAGE =           9.2888

           TOTAL OUT =250384105000.0000             TOTAL OUT =          45.4519

            IN - OUT =     -264960.0000              IN - OUT =       1.9427E-03

 PERCENT DISCREPANCY =           0.00     PERCENT DISCREPANCY =           0.00






          TIME SUMMARY AT END OF TIME STEP  47 IN STRESS PERIOD    2
                    SECONDS     MINUTES      HOURS       DAYS        YEARS
                    -----------------------------------------------------------
   TIME STEP LENGTH 1.08697E+08 1.81162E+06  30194.      1258.1      3.4444    
 STRESS PERIOD TIME 1.18211E+09 1.97019E+07 3.28365E+05  13682.      37.459    
         TOTAL TIME 2.75999E+09 4.59999E+07 7.66665E+05  31944.      87.459    
1
 
 SOLVING FOR HEAD 
     7 ITERATIONS FOR TIME STEP  48 IN STRESS PERIOD    2

 MAXIMUM HEAD CHANGE FOR EACH ITERATION:

    HEAD CHANGE   HEAD CHANGE   HEAD CHANGE   HEAD CHANGE   HEAD CHANGE
  LAYER,ROW,COL LAYER,ROW,COL LAYER,ROW,COL LAYER,ROW,COL LAYER,ROW,COL
 ----------------------------------------------------------------------
     0.1241        0.4045E-01    0.1474E-01    0.4733E-02    0.1552E-02
  (  1, 10, 10) (  1,  6,  1) (  1,  6,  1) (  1,  6,  1) (  1, 10, 10)
     0.1012E-02    0.3194E-03
  (  1, 10, 10) (  1,  3,  3)


 OUTPUT CONTROL FOR STRESS PERIOD    2   TIME STEP  48
    PRINT BUDGET
    PRINT HEAD FOR ALL LAYERS
    SAVE BUDGET
 UBUDSV SAVING "              ET" ON UNIT 59 AT TIME STEP 48, STRESS PERIOD    2

  HEAD DEP BOUNDS   PERIOD    2   STEP  48
 BOUNDARY      1   LAYER   1   ROW    13   COL     1   RATE   -0.248307    
 BOUNDARY      2   LAYER   1   ROW    14   COL     9   RATE    0.215258    



   STREAM LEAKAGE   PERIOD    2   STEP  48

 LAYER ROW COL. STREAM  RCH.  FLOW INTO    FLOW TO  FLOW OUT OF  OVRLND.   DIRECT    STREAM    STREAM    STREAM    STREAM  STREAMBED  STREAMBED
                SEG.NO.  NO.  STRM. RCH.   AQUIFER   STRM. RCH.  RUNOFF    PRECIP      ET       HEAD      DEPTH     WIDTH  CONDCTNC.   GRADIENT

   1    1    1     1     1    2.500E+01   7.937E-01  2.421E+01  0.00E+00  0.00E+00  0.00E+00  1.09E+03  1.17E+00  1.30E+01  5.84E-01  4.53E-01
   1    2    2     1     2    2.421E+01   2.150E+00  2.206E+01  0.00E+00  0.00E+00  0.00E+00  1.09E+03  1.15E+00  1.27E+01  8.88E-01  8.07E-01
   1    3    3     1     3    2.206E+01   2.990E+00  1.907E+01  0.00E+00  0.00E+00  0.00E+00  1.08E+03  1.11E+00  1.21E+01  7.28E-01  1.37E+00
   1    3    4     1     4    1.907E+01   2.553E+00  1.651E+01  0.00E+00  0.00E+00  0.00E+00  1.08E+03  1.06E+00  1.13E+01  6.28E-01  1.35E+00
   1    4    5     2     1    6.513E+00   2.760E+00  3.753E+00  0.00E+00  0.00E+00  0.00E+00  1.07E+03  5.39E-01  1.20E+01  7.80E-01  1.18E+00
   1    5    6     2     2    3.753E+00   2.032E+00  1.721E+00  0.00E+00  0.00E+00  0.00E+00  1.07E+03  3.87E-01  1.20E+01  6.00E-01  1.13E+00
   1    6    6     2     3    1.721E+00   1.721E+00  0.000E+00  0.00E+00  0.00E+00  0.00E+00  1.06E+03  2.42E-01  1.20E+01  6.00E-01  1.08E+00
   1    7    6     2     4    0.000E+00   0.000E+00  0.000E+00  0.00E+00  0.00E+00  0.00E+00  1.06E+03  0.00E+00  1.20E+01  6.00E-01  1.00E+00
   1    8    6     2     5    0.000E+00   0.000E+00  0.000E+00  0.00E+00  0.00E+00  0.00E+00  1.05E+03  0.00E+00  1.20E+01  6.00E-01  1.00E+00
   1    3    5     3     1    1.000E+01   2.187E+00  7.813E+00  0.00E+00  0.00E+00  0.00E+00  1.08E+03  1.91E+00  9.64E+00  7.23E-01  1.51E+00
   1    3    6     3     2    7.813E+00   1.375E+00  6.438E+00  0.00E+00  0.00E+00  0.00E+00  1.07E+03  1.73E+00  8.91E+00  6.68E-01  1.03E+00
   1    3    7     3     3    6.438E+00   4.217E-01  6.016E+00  0.00E+00  0.00E+00  0.00E+00  1.07E+03  1.55E+00  8.22E+00  5.55E-01  3.80E-01
   1    4    8     3     4    6.016E+00   6.090E-01  5.407E+00  0.00E+00  0.00E+00  0.00E+00  1.07E+03  1.36E+00  7.45E+00  6.71E-01  4.54E-01
   1    5    8     3     5    5.407E+00   7.993E-01  4.608E+00  0.00E+00  0.00E+00  0.00E+00  1.06E+03  1.16E+00  6.65E+00  4.99E-01  8.01E-01
   1    6    8     3     6    4.608E+00   4.585E-01  4.150E+00  0.00E+00  0.00E+00  0.00E+00  1.06E+03  1.04E+00  6.15E+00  1.84E-01  1.24E+00
   1    5   10     4     1    1.000E+01   9.096E-01  9.090E+00  0.00E+00  0.00E+00  0.00E+00  1.08E+03  6.39E-01  1.00E+01  2.50E-01  1.21E+00
   1    5    9     4     2    9.090E+00   1.802E+00  7.289E+00  0.00E+00  0.00E+00  0.00E+00  1.07E+03  6.03E-01  1.00E+01  5.00E-01  1.20E+00
   1    6    8     4     3    7.289E+00   1.235E+00  6.054E+00  0.00E+00  0.00E+00  0.00E+00  1.06E+03  5.28E-01  1.00E+01  3.50E-01  1.18E+00
   1    6    8     5     1    1.020E+01  -2.566E-01  1.046E+01  0.00E+00  0.00E+00  0.00E+00  1.06E+03  6.79E-01  1.54E+01  6.17E-01 -1.39E-01
   1    7    7     5     2    1.046E+01   7.462E-01  9.714E+00  0.00E+00  0.00E+00  0.00E+00  1.05E+03  6.74E-01  1.52E+01  7.60E-01  3.27E-01
   1    8    7     5     3    9.714E+00   1.045E+00  8.669E+00  0.00E+00  0.00E+00  0.00E+00  1.05E+03  6.52E-01  1.44E+01  5.03E-01  6.92E-01
   1    8    6     5     4    8.669E+00   1.523E-01  8.516E+00  0.00E+00  0.00E+00  0.00E+00  1.05E+03  6.37E-01  1.38E+01  3.45E-01  1.47E-01
   1    9    6     6     1    8.516E+00   1.376E+00  7.140E+00  0.00E+00  0.00E+00  0.00E+00  1.04E+03  6.08E-01  1.20E+01  6.00E-01  7.64E-01
   1   10    7     6     2    7.140E+00   1.332E+00  5.809E+00  0.00E+00  0.00E+00  0.00E+00  1.04E+03  5.43E-01  1.20E+01  6.00E-01  7.40E-01
   1   11    7     6     3    5.809E+00   1.216E+00  4.592E+00  0.00E+00  0.00E+00  0.00E+00  1.03E+03  4.76E-01  1.20E+01  6.00E-01  6.76E-01
   1   12    7     6     4    4.592E+00   5.686E-01  4.024E+00  0.00E+00  0.00E+00  0.00E+00  1.03E+03  4.25E-01  1.20E+01  6.00E-01  3.16E-01
   1   13    7     6     5    4.024E+00  -6.615E-01  4.685E+00  0.00E+00  0.00E+00  0.00E+00  1.03E+03  4.28E-01  1.20E+01  2.40E-01 -9.19E-01
   1   14    9     7     1    1.500E+02   2.956E+00  1.470E+02  0.00E+00  0.00E+00  0.00E+00  1.04E+03  2.28E+00  5.53E+01  5.59E+00  1.76E-01
   1   13    8     7     2    1.470E+02   4.055E+00  1.430E+02  0.00E+00  0.00E+00  0.00E+00  1.03E+03  2.26E+00  5.52E+01  6.14E+00  2.20E-01
   1   13    7     7     3    1.430E+02   3.183E+00  1.398E+02  0.00E+00  0.00E+00  0.00E+00  1.03E+03  2.25E+00  5.51E+01  5.57E+00  1.90E-01
   1   13    6     8     1    1.445E+02   1.569E+00  1.429E+02  0.00E+00  0.00E+00  0.00E+00  1.02E+03  2.77E+00  4.02E+01  4.10E+00  1.28E-01
   1   13    5     8     2    1.429E+02  -1.253E+00  1.442E+02  0.00E+00  0.00E+00  0.00E+00  1.02E+03  2.77E+00  4.02E+01  4.09E+00 -1.02E-01
   1   13    4     8     3    1.442E+02  -2.965E+00  1.471E+02  0.00E+00  0.00E+00  0.00E+00  1.01E+03  2.79E+00  4.04E+01  4.12E+00 -2.40E-01
   1   13    3     8     4    1.471E+02  -3.049E+00  1.502E+02  0.00E+00  0.00E+00  0.00E+00  1.01E+03  2.81E+00  4.07E+01  4.15E+00 -2.45E-01
   1   13    2     8     5    1.502E+02  -1.112E+00  1.513E+02  0.00E+00  0.00E+00  0.00E+00  1.00E+03  2.82E+00  4.09E+01  4.17E+00 -8.89E-02
   1   13    1     8     6    1.513E+02   4.133E-01  1.509E+02  0.00E+00  0.00E+00  0.00E+00  9.95E+02  2.82E+00  4.10E+01  2.50E+00  5.50E-02



1
              HEAD IN LAYER   1 AT END OF TIME STEP  48 IN STRESS PERIOD    2
  ---------------------------------------------------------------------------

           1       2       3       4       5       6       7       8       9      10
 ...................................................................................
   1  1092.86 1089.46 6999.00 6999.00 6999.00 6999.00 6999.00 6999.00 6999.00 6999.00
   2  1089.89 1086.79 1081.55 6999.00 6999.00 1071.52 1070.80 1070.41 6999.00 6999.00
   3  6999.00 1079.48 1077.67 1073.69 1072.52 1070.58 1069.11 1068.36 6999.00 6999.00
   4  1068.68 1070.56 1070.26 1067.10 1065.49 1063.64 1063.87 1065.91 1065.95 6999.00
   5  1064.65 1063.89 1062.95 1061.51 1060.82 1060.76 1060.21 1062.02 1065.68 1068.12
   6  1059.75 1058.34 1057.20 1056.42 1056.28 1056.87 1057.20 1059.10 1061.91 1065.57
   7  1056.15 1053.07 1051.76 1051.20 1051.25 1051.85 1053.19 1055.46 1056.47 6999.00
   8  6999.00 1046.34 1045.76 1045.54 1045.75 1046.45 1047.83 1049.84 1050.37 6999.00
   9  6999.00 1039.07 1039.14 1039.48 1040.03 1041.04 1041.63 1042.84 1044.00 6999.00
  10  6999.00 1031.09 1031.79 1033.26 1034.32 1035.43 1036.51 1037.60 1039.27 1041.45
  11  6999.00 1021.43 1023.10 1026.84 1028.70 1030.48 1032.08 1033.55 1035.68 6999.00
  12  1001.17 1009.24 1014.51 1019.62 1023.14 1026.18 1028.57 1030.37 1034.28 6999.00
  13   994.53  999.96 1006.67 1012.88 1018.70 1024.26 1029.09 1034.10 1036.13 6999.00
  14  6999.00 1004.01 1008.95 1013.70 1018.89 1024.03 1029.48 1035.09 1039.34 6999.00
  15  6999.00 6999.00 1011.92 1015.10 1019.12 1022.39 6999.00 6999.00 6999.00 6999.00
1
  VOLUMETRIC BUDGET FOR ENTIRE MODEL AT END OF TIME STEP 48 IN STRESS PERIOD   2
  ------------------------------------------------------------------------------

     CUMULATIVE VOLUMES      L**3       RATES FOR THIS TIME STEP      L**3/T
     ------------------                 ------------------------

           IN:                                      IN:
           ---                                      ---
             STORAGE = 30230089700.0000               STORAGE =           0.0000
       CONSTANT HEAD =           0.0000         CONSTANT HEAD =           0.0000
               WELLS =           0.0000                 WELLS =           0.0000
                  ET =           0.0000                    ET =           0.0000
     HEAD DEP BOUNDS =   625078336.0000       HEAD DEP BOUNDS =           0.2153
            RECHARGE =  5165210110.0000              RECHARGE =           1.7937
      STREAM LEAKAGE =219794047000.0000        STREAM LEAKAGE =          43.4097

            TOTAL IN =255814418000.0000              TOTAL IN =          45.4187

          OUT:                                     OUT:
          ----                                     ----
             STORAGE = 30225000400.0000               STORAGE =       6.1735E-02
       CONSTANT HEAD =           0.0000         CONSTANT HEAD =           0.0000
               WELLS =157787963000.0000                 WELLS =           0.0000
                  ET = 58481745900.0000                    ET =          35.8113
     HEAD DEP BOUNDS =   667330816.0000       HEAD DEP BOUNDS =           0.2483
            RECHARGE =           0.0000              RECHARGE =           0.0000
      STREAM LEAKAGE =  8652627970.0000        STREAM LEAKAGE =           9.2973

           TOTAL OUT =255814664000.0000             TOTAL OUT =          45.4186

            IN - OUT =     -243392.0000              IN - OUT =       1.8068E-04

 PERCENT DISCREPANCY =           0.00     PERCENT DISCREPANCY =           0.00






          TIME SUMMARY AT END OF TIME STEP  48 IN STRESS PERIOD    2
                    SECONDS     MINUTES      HOURS       DAYS        YEARS
                    -----------------------------------------------------------
   TIME STEP LENGTH 1.19567E+08 1.99278E+06  33213.      1383.9      3.7888    
 STRESS PERIOD TIME 1.30168E+09 2.16947E+07 3.61578E+05  15066.      41.248    
         TOTAL TIME 2.87956E+09 4.79927E+07 7.99878E+05  33328.      91.248    
1
 
 SOLVING FOR HEAD 
     5 ITERATIONS FOR TIME STEP  49 IN STRESS PERIOD    2

 MAXIMUM HEAD CHANGE FOR EACH ITERATION:

    HEAD CHANGE   HEAD CHANGE   HEAD CHANGE   HEAD CHANGE   HEAD CHANGE
  LAYER,ROW,COL LAYER,ROW,COL LAYER,ROW,COL LAYER,ROW,COL LAYER,ROW,COL
 ----------------------------------------------------------------------
     0.5836E-01    0.1731E-01    0.6407E-02    0.2072E-02    0.7482E-03
  (  1, 10, 10) (  1,  6,  1) (  1,  6,  1) (  1,  6,  1) (  1, 10, 10)


 OUTPUT CONTROL FOR STRESS PERIOD    2   TIME STEP  49
    PRINT BUDGET
    PRINT HEAD FOR ALL LAYERS
    SAVE BUDGET
 UBUDSV SAVING "              ET" ON UNIT 59 AT TIME STEP 49, STRESS PERIOD    2

  HEAD DEP BOUNDS   PERIOD    2   STEP  49
 BOUNDARY      1   LAYER   1   ROW    13   COL     1   RATE   -0.248313    
 BOUNDARY      2   LAYER   1   ROW    14   COL     9   RATE    0.215256    



   STREAM LEAKAGE   PERIOD    2   STEP  49

 LAYER ROW COL. STREAM  RCH.  FLOW INTO    FLOW TO  FLOW OUT OF  OVRLND.   DIRECT    STREAM    STREAM    STREAM    STREAM  STREAMBED  STREAMBED
                SEG.NO.  NO.  STRM. RCH.   AQUIFER   STRM. RCH.  RUNOFF    PRECIP      ET       HEAD      DEPTH     WIDTH  CONDCTNC.   GRADIENT

   1    1    1     1     1    2.500E+01   7.932E-01  2.421E+01  0.00E+00  0.00E+00  0.00E+00  1.09E+03  1.17E+00  1.30E+01  5.84E-01  4.53E-01
   1    2    2     1     2    2.421E+01   2.147E+00  2.206E+01  0.00E+00  0.00E+00  0.00E+00  1.09E+03  1.15E+00  1.27E+01  8.88E-01  8.06E-01
   1    3    3     1     3    2.206E+01   2.990E+00  1.907E+01  0.00E+00  0.00E+00  0.00E+00  1.08E+03  1.11E+00  1.21E+01  7.28E-01  1.37E+00
   1    3    4     1     4    1.907E+01   2.553E+00  1.652E+01  0.00E+00  0.00E+00  0.00E+00  1.08E+03  1.06E+00  1.13E+01  6.28E-01  1.35E+00
   1    4    5     2     1    6.516E+00   2.760E+00  3.756E+00  0.00E+00  0.00E+00  0.00E+00  1.07E+03  5.39E-01  1.20E+01  7.80E-01  1.18E+00
   1    5    6     2     2    3.756E+00   2.032E+00  1.723E+00  0.00E+00  0.00E+00  0.00E+00  1.07E+03  3.87E-01  1.20E+01  6.00E-01  1.13E+00
   1    6    6     2     3    1.723E+00   1.723E+00  0.000E+00  0.00E+00  0.00E+00  0.00E+00  1.06E+03  2.43E-01  1.20E+01  6.00E-01  1.08E+00
   1    7    6     2     4    0.000E+00   0.000E+00  0.000E+00  0.00E+00  0.00E+00  0.00E+00  1.06E+03  0.00E+00  1.20E+01  6.00E-01  1.00E+00
   1    8    6     2     5    0.000E+00   0.000E+00  0.000E+00  0.00E+00  0.00E+00  0.00E+00  1.05E+03  0.00E+00  1.20E+01  6.00E-01  1.00E+00
   1    3    5     3     1    1.000E+01   2.185E+00  7.815E+00  0.00E+00  0.00E+00  0.00E+00  1.08E+03  1.91E+00  9.64E+00  7.23E-01  1.51E+00
   1    3    6     3     2    7.815E+00   1.374E+00  6.441E+00  0.00E+00  0.00E+00  0.00E+00  1.07E+03  1.73E+00  8.91E+00  6.68E-01  1.03E+00
   1    3    7     3     3    6.441E+00   4.210E-01  6.020E+00  0.00E+00  0.00E+00  0.00E+00  1.07E+03  1.55E+00  8.22E+00  5.55E-01  3.79E-01
   1    4    8     3     4    6.020E+00   6.082E-01  5.412E+00  0.00E+00  0.00E+00  0.00E+00  1.07E+03  1.36E+00  7.45E+00  6.71E-01  4.53E-01
   1    5    8     3     5    5.412E+00   7.980E-01  4.614E+00  0.00E+00  0.00E+00  0.00E+00  1.06E+03  1.16E+00  6.65E+00  4.99E-01  7.99E-01
   1    6    8     3     6    4.614E+00   4.580E-01  4.156E+00  0.00E+00  0.00E+00  0.00E+00  1.06E+03  1.04E+00  6.15E+00  1.84E-01  1.24E+00
   1    5   10     4     1    1.000E+01   9.096E-01  9.090E+00  0.00E+00  0.00E+00  0.00E+00  1.08E+03  6.39E-01  1.00E+01  2.50E-01  1.21E+00
   1    5    9     4     2    9.090E+00   1.802E+00  7.289E+00  0.00E+00  0.00E+00  0.00E+00  1.07E+03  6.03E-01  1.00E+01  5.00E-01  1.20E+00
   1    6    8     4     3    7.289E+00   1.235E+00  6.054E+00  0.00E+00  0.00E+00  0.00E+00  1.06E+03  5.28E-01  1.00E+01  3.50E-01  1.18E+00
   1    6    8     5     1    1.021E+01  -2.580E-01  1.047E+01  0.00E+00  0.00E+00  0.00E+00  1.06E+03  6.80E-01  1.54E+01  6.17E-01 -1.39E-01
   1    7    7     5     2    1.047E+01   7.447E-01  9.723E+00  0.00E+00  0.00E+00  0.00E+00  1.05E+03  6.74E-01  1.52E+01  7.61E-01  3.26E-01
   1    8    7     5     3    9.723E+00   1.044E+00  8.679E+00  0.00E+00  0.00E+00  0.00E+00  1.05E+03  6.52E-01  1.44E+01  5.04E-01  6.91E-01
   1    8    6     5     4    8.679E+00   1.515E-01  8.527E+00  0.00E+00  0.00E+00  0.00E+00  1.05E+03  6.37E-01  1.38E+01  3.46E-01  1.46E-01
   1    9    6     6     1    8.527E+00   1.375E+00  7.152E+00  0.00E+00  0.00E+00  0.00E+00  1.04E+03  6.09E-01  1.20E+01  6.00E-01  7.64E-01
   1   10    7     6     2    7.152E+00   1.330E+00  5.822E+00  0.00E+00  0.00E+00  0.00E+00  1.04E+03  5.43E-01  1.20E+01  6.00E-01  7.39E-01
   1   11    7     6     3    5.822E+00   1.216E+00  4.606E+00  0.00E+00  0.00E+00  0.00E+00  1.03E+03  4.77E-01  1.20E+01  6.00E-01  6.76E-01
   1   12    7     6     4    4.606E+00   5.684E-01  4.037E+00  0.00E+00  0.00E+00  0.00E+00  1.03E+03  4.26E-01  1.20E+01  6.00E-01  3.16E-01
   1   13    7     6     5    4.037E+00  -6.614E-01  4.699E+00  0.00E+00  0.00E+00  0.00E+00  1.03E+03  4.29E-01  1.20E+01  2.40E-01 -9.19E-01
   1   14    9     7     1    1.500E+02   2.956E+00  1.470E+02  0.00E+00  0.00E+00  0.00E+00  1.04E+03  2.28E+00  5.53E+01  5.59E+00  1.76E-01
   1   13    8     7     2    1.470E+02   4.055E+00  1.430E+02  0.00E+00  0.00E+00  0.00E+00  1.03E+03  2.26E+00  5.52E+01  6.14E+00  2.20E-01
   1   13    7     7     3    1.430E+02   3.182E+00  1.398E+02  0.00E+00  0.00E+00  0.00E+00  1.03E+03  2.25E+00  5.51E+01  5.57E+00  1.90E-01
   1   13    6     8     1    1.445E+02   1.569E+00  1.429E+02  0.00E+00  0.00E+00  0.00E+00  1.02E+03  2.77E+00  4.02E+01  4.10E+00  1.28E-01
   1   13    5     8     2    1.429E+02  -1.254E+00  1.442E+02  0.00E+00  0.00E+00  0.00E+00  1.02E+03  2.77E+00  4.02E+01  4.09E+00 -1.02E-01
   1   13    4     8     3    1.442E+02  -2.966E+00  1.472E+02  0.00E+00  0.00E+00  0.00E+00  1.01E+03  2.79E+00  4.04E+01  4.12E+00 -2.40E-01
   1   13    3     8     4    1.472E+02  -3.050E+00  1.502E+02  0.00E+00  0.00E+00  0.00E+00  1.01E+03  2.81E+00  4.07E+01  4.15E+00 -2.45E-01
   1   13    2     8     5    1.502E+02  -1.112E+00  1.513E+02  0.00E+00  0.00E+00  0.00E+00  1.00E+03  2.82E+00  4.09E+01  4.17E+00 -8.89E-02
   1   13    1     8     6    1.513E+02   4.133E-01  1.509E+02  0.00E+00  0.00E+00  0.00E+00  9.95E+02  2.82E+00  4.10E+01  2.50E+00  5.50E-02



1
              HEAD IN LAYER   1 AT END OF TIME STEP  49 IN STRESS PERIOD    2
  ---------------------------------------------------------------------------

           1       2       3       4       5       6       7       8       9      10
 ...................................................................................
   1  1092.86 1089.46 6999.00 6999.00 6999.00 6999.00 6999.00 6999.00 6999.00 6999.00
   2  1089.90 1086.79 1081.56 6999.00 6999.00 1071.52 1070.80 1070.42 6999.00 6999.00
   3  6999.00 1079.49 1077.68 1073.70 1072.52 1070.58 1069.11 1068.36 6999.00 6999.00
   4  1068.74 1070.59 1070.28 1067.11 1065.50 1063.64 1063.87 1065.91 1065.95 6999.00
   5  1064.72 1063.93 1062.97 1061.52 1060.83 1060.77 1060.21 1062.02 1065.68 1068.13
   6  1059.81 1058.38 1057.22 1056.43 1056.28 1056.87 1057.20 1059.10 1061.91 1065.57
   7  1056.21 1053.10 1051.78 1051.20 1051.26 1051.85 1053.19 1055.46 1056.48 6999.00
   8  6999.00 1046.36 1045.77 1045.55 1045.75 1046.45 1047.83 1049.84 1050.39 6999.00
   9  6999.00 1039.09 1039.14 1039.49 1040.04 1041.04 1041.64 1042.85 1044.03 6999.00
  10  6999.00 1031.10 1031.79 1033.26 1034.32 1035.44 1036.51 1037.62 1039.30 1041.53
  11  6999.00 1021.44 1023.10 1026.84 1028.70 1030.49 1032.09 1033.55 1035.69 6999.00
  12  1001.17 1009.24 1014.52 1019.62 1023.14 1026.18 1028.57 1030.37 1034.29 6999.00
  13   994.53  999.96 1006.67 1012.88 1018.70 1024.26 1029.09 1034.10 1036.13 6999.00
  14  6999.00 1004.01 1008.95 1013.70 1018.89 1024.03 1029.48 1035.09 1039.34 6999.00
  15  6999.00 6999.00 1011.92 1015.10 1019.13 1022.39 6999.00 6999.00 6999.00 6999.00
1
  VOLUMETRIC BUDGET FOR ENTIRE MODEL AT END OF TIME STEP 49 IN STRESS PERIOD   2
  ------------------------------------------------------------------------------

     CUMULATIVE VOLUMES      L**3       RATES FOR THIS TIME STEP      L**3/T
     ------------------                 ------------------------

           IN:                                      IN:
           ---                                      ---
             STORAGE = 30230089700.0000               STORAGE =           0.0000
       CONSTANT HEAD =           0.0000         CONSTANT HEAD =           0.0000
               WELLS =           0.0000                 WELLS =           0.0000
                  ET =           0.0000                    ET =           0.0000
     HEAD DEP BOUNDS =   653389632.0000       HEAD DEP BOUNDS =           0.2153
            RECHARGE =  5401130500.0000              RECHARGE =           1.7937
      STREAM LEAKAGE =225501659000.0000        STREAM LEAKAGE =          43.3961

            TOTAL IN =261786272000.0000              TOTAL IN =          45.4051

          OUT:                                     OUT:
          ----                                     ----
             STORAGE = 30228062200.0000               STORAGE =       2.3281E-02
       CONSTANT HEAD =           0.0000         CONSTANT HEAD =           0.0000
               WELLS =157787963000.0000                 WELLS =           0.0000
                  ET = 63194591200.0000                    ET =          35.8327
     HEAD DEP BOUNDS =   699989824.0000       HEAD DEP BOUNDS =           0.2483
            RECHARGE =           0.0000              RECHARGE =           0.0000
      STREAM LEAKAGE =  9875918850.0000        STREAM LEAKAGE =           9.3009

           TOTAL OUT =261786518000.0000             TOTAL OUT =          45.4052

            IN - OUT =     -256512.0000              IN - OUT =      -9.2216E-05

 PERCENT DISCREPANCY =           0.00     PERCENT DISCREPANCY =           0.00






          TIME SUMMARY AT END OF TIME STEP  49 IN STRESS PERIOD    2
                    SECONDS     MINUTES      HOURS       DAYS        YEARS
                    -----------------------------------------------------------
   TIME STEP LENGTH 1.31524E+08 2.19206E+06  36534.      1522.3      4.1677    
 STRESS PERIOD TIME 1.43320E+09 2.38867E+07 3.98112E+05  16588.      45.415    
         TOTAL TIME 3.01108E+09 5.01847E+07 8.36412E+05  34850.      95.415    
1
 
 SOLVING FOR HEAD 
     4 ITERATIONS FOR TIME STEP  50 IN STRESS PERIOD    2

 MAXIMUM HEAD CHANGE FOR EACH ITERATION:

    HEAD CHANGE   HEAD CHANGE   HEAD CHANGE   HEAD CHANGE   HEAD CHANGE
  LAYER,ROW,COL LAYER,ROW,COL LAYER,ROW,COL LAYER,ROW,COL LAYER,ROW,COL
 ----------------------------------------------------------------------
     0.2594E-01    0.6963E-02    0.2629E-02    0.8591E-03
  (  1, 10, 10) (  1,  6,  1) (  1,  6,  1) (  1,  6,  1)


 OUTPUT CONTROL FOR STRESS PERIOD    2   TIME STEP  50
    PRINT BUDGET
    PRINT HEAD FOR ALL LAYERS
    SAVE BUDGET
 UBUDSV SAVING "              ET" ON UNIT 59 AT TIME STEP 50, STRESS PERIOD    2

  HEAD DEP BOUNDS   PERIOD    2   STEP  50
 BOUNDARY      1   LAYER   1   ROW    13   COL     1   RATE   -0.248315    
 BOUNDARY      2   LAYER   1   ROW    14   COL     9   RATE    0.215257    



   STREAM LEAKAGE   PERIOD    2   STEP  50

 LAYER ROW COL. STREAM  RCH.  FLOW INTO    FLOW TO  FLOW OUT OF  OVRLND.   DIRECT    STREAM    STREAM    STREAM    STREAM  STREAMBED  STREAMBED
                SEG.NO.  NO.  STRM. RCH.   AQUIFER   STRM. RCH.  RUNOFF    PRECIP      ET       HEAD      DEPTH     WIDTH  CONDCTNC.   GRADIENT

   1    1    1     1     1    2.500E+01   7.930E-01  2.421E+01  0.00E+00  0.00E+00  0.00E+00  1.09E+03  1.17E+00  1.30E+01  5.84E-01  4.52E-01
   1    2    2     1     2    2.421E+01   2.146E+00  2.206E+01  0.00E+00  0.00E+00  0.00E+00  1.09E+03  1.15E+00  1.27E+01  8.88E-01  8.06E-01
   1    3    3     1     3    2.206E+01   2.991E+00  1.907E+01  0.00E+00  0.00E+00  0.00E+00  1.08E+03  1.11E+00  1.21E+01  7.28E-01  1.37E+00
   1    3    4     1     4    1.907E+01   2.553E+00  1.652E+01  0.00E+00  0.00E+00  0.00E+00  1.08E+03  1.06E+00  1.13E+01  6.28E-01  1.35E+00
   1    4    5     2     1    6.517E+00   2.760E+00  3.757E+00  0.00E+00  0.00E+00  0.00E+00  1.07E+03  5.39E-01  1.20E+01  7.80E-01  1.18E+00
   1    5    6     2     2    3.757E+00   2.032E+00  1.725E+00  0.00E+00  0.00E+00  0.00E+00  1.07E+03  3.87E-01  1.20E+01  6.00E-01  1.13E+00
   1    6    6     2     3    1.725E+00   1.725E+00  0.000E+00  0.00E+00  0.00E+00  0.00E+00  1.06E+03  2.43E-01  1.20E+01  6.00E-01  1.08E+00
   1    7    6     2     4    0.000E+00   0.000E+00  0.000E+00  0.00E+00  0.00E+00  0.00E+00  1.06E+03  0.00E+00  1.20E+01  6.00E-01  1.00E+00
   1    8    6     2     5    0.000E+00   0.000E+00  0.000E+00  0.00E+00  0.00E+00  0.00E+00  1.05E+03  0.00E+00  1.20E+01  6.00E-01  1.00E+00
   1    3    5     3     1    1.000E+01   2.184E+00  7.816E+00  0.00E+00  0.00E+00  0.00E+00  1.08E+03  1.91E+00  9.64E+00  7.23E-01  1.51E+00
   1    3    6     3     2    7.816E+00   1.374E+00  6.442E+00  0.00E+00  0.00E+00  0.00E+00  1.07E+03  1.73E+00  8.91E+00  6.68E-01  1.03E+00
   1    3    7     3     3    6.442E+00   4.207E-01  6.021E+00  0.00E+00  0.00E+00  0.00E+00  1.07E+03  1.55E+00  8.22E+00  5.55E-01  3.79E-01
   1    4    8     3     4    6.021E+00   6.080E-01  5.413E+00  0.00E+00  0.00E+00  0.00E+00  1.07E+03  1.36E+00  7.45E+00  6.71E-01  4.53E-01
   1    5    8     3     5    5.413E+00   7.976E-01  4.616E+00  0.00E+00  0.00E+00  0.00E+00  1.06E+03  1.16E+00  6.65E+00  4.99E-01  7.99E-01
   1    6    8     3     6    4.616E+00   4.579E-01  4.158E+00  0.00E+00  0.00E+00  0.00E+00  1.06E+03  1.04E+00  6.15E+00  1.84E-01  1.24E+00
   1    5   10     4     1    1.000E+01   9.096E-01  9.090E+00  0.00E+00  0.00E+00  0.00E+00  1.08E+03  6.39E-01  1.00E+01  2.50E-01  1.21E+00
   1    5    9     4     2    9.090E+00   1.802E+00  7.289E+00  0.00E+00  0.00E+00  0.00E+00  1.07E+03  6.03E-01  1.00E+01  5.00E-01  1.20E+00
   1    6    8     4     3    7.289E+00   1.235E+00  6.054E+00  0.00E+00  0.00E+00  0.00E+00  1.06E+03  5.28E-01  1.00E+01  3.50E-01  1.18E+00
   1    6    8     5     1    1.021E+01  -2.585E-01  1.047E+01  0.00E+00  0.00E+00  0.00E+00  1.06E+03  6.80E-01  1.54E+01  6.17E-01 -1.40E-01
   1    7    7     5     2    1.047E+01   7.440E-01  9.726E+00  0.00E+00  0.00E+00  0.00E+00  1.05E+03  6.74E-01  1.52E+01  7.61E-01  3.26E-01
   1    8    7     5     3    9.726E+00   1.044E+00  8.682E+00  0.00E+00  0.00E+00  0.00E+00  1.05E+03  6.52E-01  1.44E+01  5.04E-01  6.91E-01
   1    8    6     5     4    8.682E+00   1.512E-01  8.531E+00  0.00E+00  0.00E+00  0.00E+00  1.05E+03  6.37E-01  1.38E+01  3.46E-01  1.46E-01
   1    9    6     6     1    8.531E+00   1.374E+00  7.156E+00  0.00E+00  0.00E+00  0.00E+00  1.04E+03  6.09E-01  1.20E+01  6.00E-01  7.64E-01
   1   10    7     6     2    7.156E+00   1.330E+00  5.826E+00  0.00E+00  0.00E+00  0.00E+00  1.04E+03  5.44E-01  1.20E+01  6.00E-01  7.39E-01
   1   11    7     6     3    5.826E+00   1.216E+00  4.611E+00  0.00E+00  0.00E+00  0.00E+00  1.03E+03  4.77E-01  1.20E+01  6.00E-01  6.75E-01
   1   12    7     6     4    4.611E+00   5.684E-01  4.042E+00  0.00E+00  0.00E+00  0.00E+00  1.03E+03  4.26E-01  1.20E+01  6.00E-01  3.16E-01
   1   13    7     6     5    4.042E+00  -6.613E-01  4.703E+00  0.00E+00  0.00E+00  0.00E+00  1.03E+03  4.29E-01  1.20E+01  2.40E-01 -9.18E-01
   1   14    9     7     1    1.500E+02   2.956E+00  1.470E+02  0.00E+00  0.00E+00  0.00E+00  1.04E+03  2.28E+00  5.53E+01  5.59E+00  1.76E-01
   1   13    8     7     2    1.470E+02   4.055E+00  1.430E+02  0.00E+00  0.00E+00  0.00E+00  1.03E+03  2.26E+00  5.52E+01  6.14E+00  2.20E-01
   1   13    7     7     3    1.430E+02   3.183E+00  1.398E+02  0.00E+00  0.00E+00  0.00E+00  1.03E+03  2.25E+00  5.51E+01  5.57E+00  1.90E-01
   1   13    6     8     1    1.445E+02   1.568E+00  1.429E+02  0.00E+00  0.00E+00  0.00E+00  1.02E+03  2.77E+00  4.02E+01  4.10E+00  1.28E-01
   1   13    5     8     2    1.429E+02  -1.254E+00  1.442E+02  0.00E+00  0.00E+00  0.00E+00  1.02E+03  2.77E+00  4.02E+01  4.09E+00 -1.02E-01
   1   13    4     8     3    1.442E+02  -2.966E+00  1.472E+02  0.00E+00  0.00E+00  0.00E+00  1.01E+03  2.79E+00  4.04E+01  4.12E+00 -2.40E-01
   1   13    3     8     4    1.472E+02  -3.050E+00  1.502E+02  0.00E+00  0.00E+00  0.00E+00  1.01E+03  2.81E+00  4.07E+01  4.15E+00 -2.45E-01
   1   13    2     8     5    1.502E+02  -1.112E+00  1.513E+02  0.00E+00  0.00E+00  0.00E+00  1.00E+03  2.82E+00  4.09E+01  4.17E+00 -8.89E-02
   1   13    1     8     6    1.513E+02   4.134E-01  1.509E+02  0.00E+00  0.00E+00  0.00E+00  9.95E+02  2.82E+00  4.10E+01  2.50E+00  5.50E-02



1
              HEAD IN LAYER   1 AT END OF TIME STEP  50 IN STRESS PERIOD    2
  ---------------------------------------------------------------------------

           1       2       3       4       5       6       7       8       9      10
 ...................................................................................
   1  1092.86 1089.46 6999.00 6999.00 6999.00 6999.00 6999.00 6999.00 6999.00 6999.00
   2  1089.90 1086.79 1081.56 6999.00 6999.00 1071.52 1070.80 1070.42 6999.00 6999.00
   3  6999.00 1079.50 1077.68 1073.70 1072.52 1070.58 1069.11 1068.36 6999.00 6999.00
   4  1068.76 1070.61 1070.28 1067.11 1065.50 1063.64 1063.87 1065.91 1065.95 6999.00
   5  1064.74 1063.94 1062.97 1061.52 1060.83 1060.77 1060.21 1062.02 1065.68 1068.13
   6  1059.84 1058.39 1057.22 1056.44 1056.28 1056.88 1057.20 1059.10 1061.92 1065.58
   7  1056.24 1053.12 1051.78 1051.21 1051.26 1051.85 1053.20 1055.47 1056.48 6999.00
   8  6999.00 1046.37 1045.77 1045.55 1045.75 1046.45 1047.83 1049.85 1050.40 6999.00
   9  6999.00 1039.09 1039.15 1039.49 1040.04 1041.05 1041.64 1042.86 1044.04 6999.00
  10  6999.00 1031.10 1031.79 1033.26 1034.32 1035.44 1036.51 1037.62 1039.31 1041.56
  11  6999.00 1021.44 1023.10 1026.84 1028.70 1030.49 1032.09 1033.56 1035.70 6999.00
  12  1001.17 1009.24 1014.52 1019.62 1023.14 1026.18 1028.57 1030.37 1034.29 6999.00
  13   994.53  999.96 1006.67 1012.88 1018.70 1024.26 1029.09 1034.10 1036.13 6999.00
  14  6999.00 1004.01 1008.96 1013.70 1018.89 1024.03 1029.48 1035.09 1039.34 6999.00
  15  6999.00 6999.00 1011.92 1015.10 1019.13 1022.39 6999.00 6999.00 6999.00 6999.00
1
  VOLUMETRIC BUDGET FOR ENTIRE MODEL AT END OF TIME STEP 50 IN STRESS PERIOD   2
  ------------------------------------------------------------------------------

     CUMULATIVE VOLUMES      L**3       RATES FOR THIS TIME STEP      L**3/T
     ------------------                 ------------------------

           IN:                                      IN:
           ---                                      ---
             STORAGE = 30230089700.0000               STORAGE =           0.0000
       CONSTANT HEAD =           0.0000         CONSTANT HEAD =           0.0000
               WELLS =           0.0000                 WELLS =           0.0000
                  ET =           0.0000                    ET =           0.0000
     HEAD DEP BOUNDS =   684532096.0000       HEAD DEP BOUNDS =           0.2153
            RECHARGE =  5660643330.0000              RECHARGE =           1.7937
      STREAM LEAKAGE =231779369000.0000        STREAM LEAKAGE =          43.3915

            TOTAL IN =268354634000.0000              TOTAL IN =          45.4005

          OUT:                                     OUT:
          ----                                     ----
             STORAGE = 30229254100.0000               STORAGE =       8.2318E-03
       CONSTANT HEAD =           0.0000         CONSTANT HEAD =           0.0000
               WELLS =157787963000.0000                 WELLS =           0.0000
                  ET = 68379856900.0000                    ET =          35.8405
     HEAD DEP BOUNDS =   735915072.0000       HEAD DEP BOUNDS =           0.2483
            RECHARGE =           0.0000              RECHARGE =           0.0000
      STREAM LEAKAGE = 11221698600.0000        STREAM LEAKAGE =           9.3020

           TOTAL OUT =268354683000.0000             TOTAL OUT =          45.3991

            IN - OUT =      -53952.0000              IN - OUT =       1.4246E-03

 PERCENT DISCREPANCY =           0.00     PERCENT DISCREPANCY =           0.00






          TIME SUMMARY AT END OF TIME STEP  50 IN STRESS PERIOD    2
                    SECONDS     MINUTES      HOURS       DAYS        YEARS
                    -----------------------------------------------------------
   TIME STEP LENGTH 1.44676E+08 2.41127E+06  40188.      1674.5      4.5845    
 STRESS PERIOD TIME 1.57788E+09 2.62980E+07 4.38300E+05  18262.      50.000    
         TOTAL TIME 3.15576E+09 5.25960E+07 8.76600E+05  36525.      100.00    
1
