                                  MODFLOW-2000
      U.S. GEOLOGICAL SURVEY MODULAR FINITE-DIFFERENCE GROUND-WATER FLOW MODEL
                           VERSION 1.15.00 08/06/2004


 This model run combines GLOBAL and LIST output into this single file.

 GLOBAL LISTING FILE: test1tr.lst
                         UNIT    9

 OPENING ../data/test1tr.ba6
 FILE TYPE:BAS6   UNIT   75   STATUS:OLD    
 FORMAT:FORMATTED              ACCESS:SEQUENTIAL          

 OPENING ../data/test1tr.lpf
 FILE TYPE:LPF   UNIT    7   STATUS:OLD    
 FORMAT:FORMATTED              ACCESS:SEQUENTIAL          

 OPENING ../data/test1tr.dis
 FILE TYPE:DIS   UNIT    8   STATUS:OLD    
 FORMAT:FORMATTED              ACCESS:SEQUENTIAL          

 OPENING ../data/test1tr.sip
 FILE TYPE:SIP   UNIT   13   STATUS:OLD    
 FORMAT:FORMATTED              ACCESS:SEQUENTIAL          

 OPENING ../data/test1tr.oc
 FILE TYPE:OC   UNIT   14   STATUS:OLD    
 FORMAT:FORMATTED              ACCESS:SEQUENTIAL          

 OPENING ../data/test1tr.sfr
 FILE TYPE:SFR   UNIT   15   STATUS:OLD    
 FORMAT:FORMATTED              ACCESS:SEQUENTIAL          

 OPENING ../data/test1tr.wel
 FILE TYPE:WEL   UNIT   16   STATUS:OLD    
 FORMAT:FORMATTED              ACCESS:SEQUENTIAL          

 OPENING ../data/test1tr.ghb
 FILE TYPE:GHB   UNIT   17   STATUS:OLD    
 FORMAT:FORMATTED              ACCESS:SEQUENTIAL          

 OPENING ../data/test1tr.evt
 FILE TYPE:EVT   UNIT   18   STATUS:OLD    
 FORMAT:FORMATTED              ACCESS:SEQUENTIAL          

 OPENING ../data/test1tr.rch
 FILE TYPE:RCH   UNIT   19   STATUS:OLD    
 FORMAT:FORMATTED              ACCESS:SEQUENTIAL          

 OPENING ../data/test1tr.gag
 FILE TYPE:GAGE   UNIT   32   STATUS:OLD    
 FORMAT:FORMATTED              ACCESS:SEQUENTIAL          

 OPENING test1tr.hds
 FILE TYPE:DATA   UNIT   58   STATUS:UNKNOWN
 FORMAT:FORMATTED              ACCESS:SEQUENTIAL          

 OPENING test1tr.et
 FILE TYPE:DATA(BINARY)   UNIT   59   STATUS:UNKNOWN
 FORMAT:UNFORMATTED            ACCESS:TRANSPARENT         

 OPENING test1tr.flw
 FILE TYPE:DATA   UNIT   81   STATUS:UNKNOWN
 FORMAT:FORMATTED              ACCESS:SEQUENTIAL          

 OPENING test1tr.sg1
 FILE TYPE:DATA   UNIT   83   STATUS:UNKNOWN
 FORMAT:FORMATTED              ACCESS:SEQUENTIAL          

 OPENING test1tr.sg2
 FILE TYPE:DATA   UNIT   84   STATUS:UNKNOWN
 FORMAT:FORMATTED              ACCESS:SEQUENTIAL          

 OPENING test1tr.sg3
 FILE TYPE:DATA   UNIT   85   STATUS:UNKNOWN
 FORMAT:FORMATTED              ACCESS:SEQUENTIAL          

 OPENING test1tr.sg4
 FILE TYPE:DATA   UNIT   86   STATUS:UNKNOWN
 FORMAT:FORMATTED              ACCESS:SEQUENTIAL          

 OPENING test1tr.sg5
 FILE TYPE:DATA   UNIT   87   STATUS:UNKNOWN
 FORMAT:FORMATTED              ACCESS:SEQUENTIAL          

 OPENING test1tr.sg6
 FILE TYPE:DATA   UNIT   88   STATUS:UNKNOWN
 FORMAT:FORMATTED              ACCESS:SEQUENTIAL          

 OPENING test1tr.sg7
 FILE TYPE:DATA   UNIT   89   STATUS:UNKNOWN
 FORMAT:FORMATTED              ACCESS:SEQUENTIAL          

 OPENING test1tr.sg8
 FILE TYPE:DATA   UNIT   90   STATUS:UNKNOWN
 FORMAT:FORMATTED              ACCESS:SEQUENTIAL          

 OPENING test1tr.dvsg9
 FILE TYPE:DATA   UNIT   91   STATUS:UNKNOWN
 FORMAT:FORMATTED              ACCESS:SEQUENTIAL          

 THE FREE FORMAT OPTION HAS BEEN SELECTED

 DISCRETIZATION INPUT DATA READ FROM UNIT    8
 #Discretization input data for Test1 --Transient
    1 LAYERS        15 ROWS        10 COLUMNS
    2 STRESS PERIOD(S) IN SIMULATION
 MODEL TIME UNIT IS SECONDS
 MODEL LENGTH UNIT IS FEET
 THE GROUND-WATER TRANSPORT PROCESS IS INACTIVE

 THE OBSERVATION PROCESS IS INACTIVE
 THE SENSITIVITY PROCESS IS INACTIVE
 THE PARAMETER-ESTIMATION PROCESS IS INACTIVE

 MODE: FORWARD

  Confining bed flag for each layer:
   0

       1375  ELEMENTS OF GX ARRAY USED OUT OF       1375
        150  ELEMENTS OF GZ ARRAY USED OUT OF        150
        150  ELEMENTS OF IG ARRAY USED OUT OF        150

                     DELR =   5000.00    

                     DELC =   5000.00    



           TOP ELEVATION OF LAYER 1
 READING ON UNIT    8 WITH FORMAT: (10F7.0)            

            1           2           3           4           5           6           7           8           9          10
 ........................................................................................................................
   1    1105.       1105.       0.000       0.000       0.000       0.000       0.000       0.000       0.000       0.000    
   2    1105.       1095.       1105.       0.000       0.000       1100.       1100.       1110.       0.000       0.000    
   3    0.000       1100.       1085.       1080.       1078.       1076.       1073.       1090.       0.000       0.000    
   4    1110.       1100.       1090.       1085.       1076.       1080.       1080.       1070.       1100.       0.000    
   5    1110.       1100.       1085.       1080.       1078.       1074.       1077.       1066.       1075.       1080.    
   6    1105.       1095.       1080.       1077.       1073.       1069.       1070.       1063.       1085.       1095.    
   7    1105.       1090.       1075.       1072.       1070.       1065.       1065.       1069.       1090.       0.000    
   8    0.000       1080.       1070.       1068.       1063.       1060.       1063.       1067.       1090.       0.000    
   9    0.000       1075.       1065.       1062.       1058.       1052.       1055.       1065.       1090.       0.000    
  10    0.000       1070.       1060.       1055.       1046.       1046.       1044.       1060.       1088.       1100.    
  11    0.000       1055.       1050.       1045.       1041.       1042.       1040.       1050.       1075.       0.000    
  12    1027.       1028.       1028.       1032.       1032.       1033.       1032.       1040.       1060.       0.000    
  13    997.0       1004.       1008.       1014.       1020.       1027.       1032.       1038.       1050.       0.000    
  14    0.000       1030.       1040.       1045.       1050.       1050.       1050.       1050.       1044.       0.000    
  15    0.000       0.000       1080.       1080.       1080.       1080.       0.000       0.000       0.000       0.000    



             MODEL LAYER BOTTOM EL. FOR LAYER   1
 READING ON UNIT    8 WITH FORMAT: (10F7.0)            

            1           2           3           4           5           6           7           8           9          10
 ........................................................................................................................
   1    1000.       1000.       0.000       0.000       0.000       0.000       0.000       0.000       0.000       0.000    
   2    1000.       900.0       900.0       0.000       0.000       950.0       950.0       950.0       0.000       0.000    
   3    0.000       850.0       670.0       680.0       680.0       770.0       770.0       890.0       0.000       0.000    
   4    925.0       850.0       650.0       650.0       650.0       680.0       740.0       850.0       950.0       0.000    
   5    925.0       800.0       650.0       600.0       600.0       600.0       650.0       720.0       850.0       950.0    
   6    925.0       800.0       650.0       600.0       550.0       600.0       650.0       720.0       850.0       970.0    
   7    925.0       800.0       650.0       600.0       550.0       600.0       650.0       720.0       950.0       0.000    
   8    0.000       850.0       700.0       650.0       570.0       600.0       700.0       850.0       950.0       0.000    
   9    0.000       850.0       700.0       650.0       540.0       580.0       700.0       850.0       950.0       0.000    
  10    0.000       850.0       700.0       630.0       530.0       580.0       650.0       800.0       900.0       950.0    
  11    0.000       850.0       700.0       620.0       580.0       620.0       700.0       800.0       900.0       0.000    
  12    900.0       830.0       710.0       640.0       600.0       650.0       700.0       800.0       900.0       0.000    
  13    900.0       810.0       750.0       700.0       650.0       700.0       750.0       800.0       900.0       0.000    
  14    0.000       950.0       850.0       850.0       850.0       850.0       850.0       850.0       850.0       0.000    
  15    0.000       0.000       950.0       950.0       950.0       950.0       0.000       0.000       0.000       0.000    


 STRESS PERIOD     LENGTH       TIME STEPS     MULTIPLIER FOR DELT    SS FLAG
 ----------------------------------------------------------------------------
        1        1.5778801E+09     50                    1.100         TR
        2        1.5778801E+09     50                    1.100         TR

 TRANSIENT SIMULATION




 LPF1 -- LAYER PROPERTY FLOW PACKAGE, VERSION 1, 1/11/2000
         INPUT READ FROM UNIT    7
 # Layer-Property Flow Package input
 # For transient and steady state simulations
 HEAD AT CELLS THAT CONVERT TO DRY=   0.0000    
 No named parameters

   LAYER FLAGS:
 LAYER       LAYTYP        LAYAVG         CHANI        LAYVKA        LAYWET
 ---------------------------------------------------------------------------
    1             1             0     1.000E+00             1             0

   INTERPRETATION OF LAYER FLAGS:
                        INTERBLOCK     HORIZONTAL    DATA IN
         LAYER TYPE   TRANSMISSIVITY   ANISOTROPY   ARRAY VKA   WETTABILITY
 LAYER      (LAYTYP)      (LAYAVG)       (CHANI)      (LAYVKA)      (LAYWET)
 ---------------------------------------------------------------------------
    1   CONVERTIBLE      HARMONIC     1.000E+00    ANISOTROPY  NON-WETTABLE

        600 ELEMENTS IN X ARRAY ARE USED BY LPF
          6 ELEMENTS IN IX ARRAY ARE USED BY LPF

 SIP5 -- STRONGLY IMPLICIT PROCEDURE SOLUTION PACKAGE
                    VERSION 5, 9/1/93 INPUT READ FROM UNIT   13
 MAXIMUM OF 300 ITERATIONS ALLOWED FOR CLOSURE
  5 ITERATION PARAMETERS
        905 ELEMENTS IN X ARRAY ARE USED BY SIP
        900 ELEMENTS IN IX ARRAY ARE USED BY SIP

       1505  ELEMENTS OF X ARRAY USED OUT OF       1505
          0  ELEMENTS OF Z ARRAY USED OUT OF          1
        906  ELEMENTS OF IX ARRAY USED OUT OF        906
          0  ELEMENTS OF XHS ARRAY USED OUT OF          1



          SOLUTION BY THE STRONGLY IMPLICIT PROCEDURE
          -------------------------------------------
 MAXIMUM ITERATIONS ALLOWED FOR CLOSURE =      300
                 ACCELERATION PARAMETER =    0.80000    
      HEAD CHANGE CRITERION FOR CLOSURE =    0.10000E-02
      SIP HEAD CHANGE PRINTOUT INTERVAL =        1

     CALCULATE ITERATION PARAMETERS FROM MODEL CALCULATED WSEED

 WETTING CAPABILITY IS NOT ACTIVE IN ANY LAYER



              HYD. COND. ALONG ROWS FOR LAYER   1
 READING ON UNIT    7 WITH FORMAT: (10F5.0)            

            1           2           3           4           5           6           7           8           9          10
 ........................................................................................................................
   1   2.0000E-03  2.0000E-03   0.000       0.000       0.000       0.000       0.000       0.000       0.000       0.000    
   2   4.0000E-04  2.0000E-03  2.0000E-03   0.000       0.000      4.0000E-04  4.0000E-04  4.0000E-04   0.000       0.000    
   3    0.000      4.0000E-04  2.0000E-03  2.0000E-03  4.0000E-04  4.0000E-04  4.0000E-04  4.0000E-04   0.000       0.000    
   4   4.0000E-04  4.0000E-04  4.0000E-04  2.0000E-03  2.0000E-03  2.0000E-03  4.0000E-04  4.0000E-04  4.0000E-04   0.000    
   5   4.0000E-04  4.0000E-04  4.0000E-04  2.0000E-03  2.0000E-03  2.0000E-03  2.0000E-03  2.0000E-03  2.0000E-03  2.0000E-03
   6   4.0000E-04  4.0000E-04  4.0000E-04  2.0000E-03  2.0000E-03  2.0000E-03  2.0000E-03  2.0000E-03  4.0000E-04  4.0000E-04
   7   4.0000E-04  4.0000E-04  4.0000E-04  2.0000E-03  2.0000E-03  2.0000E-03  2.0000E-03  2.0000E-03  4.0000E-04   0.000    
   8    0.000      4.0000E-04  4.0000E-04  2.0000E-03  2.0000E-03  2.0000E-03  2.0000E-03  4.0000E-04  4.0000E-04   0.000    
   9    0.000      4.0000E-04  4.0000E-04  2.0000E-03  2.0000E-03  2.0000E-03  2.0000E-03  4.0000E-04  4.0000E-04   0.000    
  10    0.000      4.0000E-04  4.0000E-04  2.0000E-03  2.0000E-03  2.0000E-03  2.0000E-03  4.0000E-04  4.0000E-04  4.0000E-04
  11    0.000      4.0000E-04  4.0000E-04  2.0000E-03  2.0000E-03  2.0000E-03  2.0000E-03  4.0000E-04  4.0000E-04   0.000    
  12   4.0000E-04  4.0000E-04  2.0000E-03  2.0000E-03  2.0000E-03  2.0000E-03  2.0000E-03  4.0000E-04  4.0000E-04   0.000    
  13   2.0000E-03  2.0000E-03  2.0000E-03  2.0000E-03  2.0000E-03  2.0000E-03  2.0000E-03  2.0000E-03  2.0000E-03   0.000    
  14    0.000      4.0000E-04  4.0000E-04  4.0000E-04  4.0000E-04  4.0000E-04  4.0000E-04  4.0000E-04  2.0000E-03   0.000    
  15    0.000       0.000      4.0000E-04  4.0000E-04  4.0000E-04  4.0000E-04   0.000       0.000       0.000       0.000    

  HORIZ. TO VERTICAL ANI. =   1.00000     FOR LAYER   1

         SPECIFIC STORAGE =  1.000000E-06 FOR LAYER   1



                     SPECIFIC YIELD FOR LAYER   1
 READING ON UNIT    7 WITH FORMAT: (10F4.0)            

            1           2           3           4           5           6           7           8           9          10
 ........................................................................................................................
   1   0.2000      0.2000       0.000       0.000       0.000       0.000       0.000       0.000       0.000       0.000    
   2   0.1000      0.2000      0.2000       0.000       0.000      0.1000      0.1000      0.1000       0.000       0.000    
   3    0.000      0.1000      0.2000      0.2000      0.1000      0.1000      0.1000      0.1000       0.000       0.000    
   4   0.1000      0.1000      0.1000      0.2000      0.2000      0.2000      0.1000      0.1000      0.1000       0.000    
   5   0.1000      0.1000      0.1000      0.2000      0.2000      0.2000      0.2000      0.2000      0.2000      0.2000    
   6   0.1000      0.1000      0.1000      0.2000      0.2000      0.2000      0.2000      0.2000      0.1000      0.1000    
   7   0.1000      0.1000      0.1000      0.2000      0.2000      0.2000      0.2000      0.2000      0.1000       0.000    
   8    0.000      0.1000      0.1000      0.2000      0.2000      0.2000      0.2000      0.1000      0.1000       0.000    
   9    0.000      0.1000      0.1000      0.2000      0.2000      0.2000      0.2000      0.1000      0.1000       0.000    
  10    0.000      0.1000      0.1000      0.2000      0.2000      0.2000      0.2000      0.1000      0.1000      0.1000    
  11    0.000      0.1000      0.1000      0.2000      0.2000      0.2000      0.2000      0.1000      0.1000       0.000    
  12   0.1000      0.1000      0.2000      0.2000      0.2000      0.2000      0.2000      0.1000      0.1000       0.000    
  13   0.2000      0.2000      0.2000      0.2000      0.2000      0.2000      0.2000      0.2000      0.2000       0.000    
  14    0.000      0.1000      0.1000      0.1000      0.1000      0.1000      0.1000      0.1000      0.2000       0.000    
  15    0.000       0.000      0.1000      0.1000      0.1000      0.1000       0.000       0.000       0.000       0.000    
 
 #TestProblem 1                                                                  
 #Transient Simulation For SFR Package                                           
 THE FREE FORMAT OPTION HAS BEEN SELECTED
    1 LAYERS        15 ROWS        10 COLUMNS
    2 STRESS PERIOD(S) IN SIMULATION

 BAS6 -- BASIC PACKAGE, VERSION 6, 1/11/2000 INPUT READ FROM UNIT   75
          5 ELEMENTS IN IR ARRAY ARE USED BY BAS

 WEL6 -- WELL PACKAGE, VERSION 6, 1/11/2000 INPUT READ FROM UNIT   16
 No named parameters
 MAXIMUM OF     10 ACTIVE WELLS AT ONE TIME
 CELL-BY-CELL FLOWS WILL BE PRINTED WHEN ICBCFL NOT 0
         40 ELEMENTS IN RX ARRAY ARE USED BY WEL

 EVT6 -- EVAPOTRANSPIRATION PACKAGE, VERSION 6, 12/14/2000
         INPUT READ FROM UNIT   18
 No named parameters
 OPTION 1 -- EVAPOTRANSPIRATION FROM TOP LAYER
 CELL-BY-CELL FLOWS WILL BE SAVED ON UNIT   59
        450 ELEMENTS IN RX ARRAY ARE USED BY EVT
        150 ELEMENTS IN IR ARRAY ARE USED BY EVT

 GHB6 -- GHB PACKAGE, VERSION 6, 1/11/2000 INPUT READ FROM UNIT   17
 No named parameters
 MAXIMUM OF      2 ACTIVE GHB CELLS AT ONE TIME
 CELL-BY-CELL FLOWS WILL BE PRINTED WHEN ICBCFL NOT 0
         10 ELEMENTS IN RX ARRAY ARE USED BY GHB

 RCH6 -- RECHARGE PACKAGE, VERSION 6, 1/11/2000 INPUT READ FROM UNIT   19
 No named parameters
 OPTION 1 -- RECHARGE TO TOP LAYER
        150 ELEMENTS IN RX ARRAY ARE USED BY RCH
        150 ELEMENTS IN IR ARRAY ARE USED BY RCH

 SFR1 -- STREAMFLOW ROUTING PACKAGE, VERSION 1, 8/15/2003
         INPUT READ FROM UNIT  15
 #Test Problem 1 using SFR1


 NUMBER OF STREAM NODES IS     36

 NUMBER OF STREAM SEGMENTS IS      8

 NUMBER OF STREAM PARAMETERS IS    0

 NUMBER OF STREAM SEGMENTS DEFINED USING PARAMETERS IS      0

 MAXIMUM DIFFERENCE IN STREAM HEAD BETWEEN ITERATONS IS   1.00E-04

 CONSTANT FOR MANNINGS EQUATION IS  1.4860E+00



 STREAMFLOW OUT OF EACH REACH WILL BE SAVED ON UNIT   81
       2147 ELEMENTS IN RX ARRAY ARE USED BY SFR
        236 ELEMENTS IN IR ARRAY ARE USED BY SFR
          3 ELEMENTS IN RX ARRAY ARE USED BY GAGE
         36 ELEMENTS IN IR ARRAY ARE USED BY GAGE

       2980  ELEMENTS OF RX ARRAY USED OUT OF       2980
        577  ELEMENTS OF IR ARRAY USED OUT OF        577
1
 #TestProblem 1                                                                  
 #Transient Simulation For SFR Package                                           



                     BOUNDARY ARRAY FOR LAYER   1
 READING ON UNIT   75 WITH FORMAT: (20I4)              

                1           2           3           4           5           6           7           8           9          10
 ............................................................................................................................
   1            1           1           0           0           0           0           0           0           0           0
   2            1           1           1           0           0           1           1           1           0           0
   3            0           1           1           1           1           1           1           1           0           0
   4            1           1           1           1           1           1           1           1           1           0
   5            1           1           1           1           1           1           1           1           1           1
   6            1           1           1           1           1           1           1           1           1           1
   7            1           1           1           1           1           1           1           1           1           0
   8            0           1           1           1           1           1           1           1           1           0
   9            0           1           1           1           1           1           1           1           1           0
  10            0           1           1           1           1           1           1           1           1           1
  11            0           1           1           1           1           1           1           1           1           0
  12            1           1           1           1           1           1           1           1           1           0
  13            1           1           1           1           1           1           1           1           1           0
  14            0           1           1           1           1           1           1           1           1           0
  15            0           0           1           1           1           1           0           0           0           0

 AQUIFER HEAD WILL BE SET TO  6999.0     AT ALL NO-FLOW NODES (IBOUND=0).



                       INITIAL HEAD FOR LAYER   1
 READING ON UNIT   75 WITH FORMAT: (10F8.0)            

            1           2           3           4           5           6           7           8           9          10
 ........................................................................................................................
   1    1093.       1089.       6999.       6999.       6999.       6999.       6999.       6999.       6999.       6999.    
   2    1090.       1087.       1081.       6999.       6999.       1072.       1072.       1071.       6999.       6999.    
   3    6999.       1079.       1078.       1074.       1072.       1071.       1069.       1068.       6999.       6999.    
   4    1069.       1071.       1070.       1067.       1066.       1064.       1064.       1066.       1066.       6999.    
   5    1065.       1064.       1063.       1062.       1061.       1061.       1060.       1062.       1066.       1068.    
   6    1060.       1058.       1057.       1056.       1056.       1057.       1057.       1059.       1062.       1066.    
   7    1056.       1053.       1052.       1051.       1051.       1052.       1053.       1056.       1056.       6999.    
   8    6999.       1046.       1046.       1046.       1046.       1046.       1048.       1050.       1050.       6999.    
   9    6999.       1039.       1039.       1040.       1040.       1041.       1042.       1043.       1044.       6999.    
  10    6999.       1031.       1032.       1033.       1034.       1035.       1036.       1038.       1039.       1042.    
  11    6999.       1021.       1023.       1027.       1029.       1030.       1032.       1034.       1036.       6999.    
  12    1001.       1009.       1014.       1020.       1023.       1026.       1029.       1030.       1034.       6999.    
  13    994.5       1000.       1007.       1013.       1019.       1024.       1029.       1034.       1036.       6999.    
  14    6999.       1004.       1009.       1014.       1019.       1024.       1030.       1035.       1039.       6999.    
  15    6999.       6999.       1012.       1015.       1019.       1022.       6999.       6999.       6999.       6999.    

 OUTPUT CONTROL IS SPECIFIED ONLY AT TIME STEPS FOR WHICH OUTPUT IS DESIRED
 HEADS WILL BE SAVED WITH FORMAT: (10F10.3)           
 SAVED HEADS WILL BE LABELED
 HEAD PRINT FORMAT CODE IS   4    DRAWDOWN PRINT FORMAT CODE IS   0
 HEADS WILL BE SAVED ON UNIT   58    DRAWDOWNS WILL BE SAVED ON UNIT    0


     0 Well parameters


     0 Evapotranspiration parameters


     0 GHB parameters


     0 Recharge parameters


   STREAM NETWORK DESCRIPTION: 

   LAYER    ROW    COL   SEGMENT   REACH     LENGTH
                          NUMBER   NUMBER    IN CELL
   --------------------------------------------------
       1      1      1       1        1     4.500E+03
       1      2      2       1        2     7.000E+03
       1      3      3       1        3     6.000E+03
       1      3      4       1        4     5.550E+03
       1      4      5       2        1     6.500E+03
       1      5      6       2        2     5.000E+03
       1      6      6       2        3     5.000E+03
       1      7      6       2        4     5.000E+03
       1      8      6       2        5     5.000E+03
       1      3      5       3        1     5.000E+03
       1      3      6       3        2     5.000E+03
       1      3      7       3        3     4.500E+03
       1      4      8       3        4     6.000E+03
       1      5      8       3        5     5.000E+03
       1      6      8       3        6     2.000E+03
       1      5     10       4        1     2.500E+03
       1      5      9       4        2     5.000E+03
       1      6      8       4        3     3.500E+03
       1      6      8       5        1     4.000E+03
       1      7      7       5        2     5.000E+03
       1      8      7       5        3     3.500E+03
       1      8      6       5        4     2.500E+03
       1      9      6       6        1     5.000E+03
       1     10      7       6        2     5.000E+03
       1     11      7       6        3     5.000E+03
       1     12      7       6        4     5.000E+03
       1     13      7       6        5     2.000E+03
       1     14      9       7        1     5.000E+03
       1     13      8       7        2     5.500E+03
       1     13      7       7        3     5.000E+03
       1     13      6       8        1     5.000E+03
       1     13      5       8        2     5.000E+03
       1     13      4       8        3     5.000E+03
       1     13      3       8        4     5.000E+03
       1     13      2       8        5     5.000E+03
       1     13      1       8        6     3.000E+03






   9 GAGING STATIONS WERE SPECIFIED.
     (Lakes are identified by a negative value of the Lake Number)
     RECORDS WILL BE WRITTEN TO SEPARATE OUTPUT FILES REPRESENTED BY FOLLOWING UNIT NUMBERS:

 Stream Gages:
  GAGE #   SEGMENT   REACH   UNIT   OUTTYPE
       1       1       4      83       4
       2       2       3      84       1
       3       3       5      85       1
       4       4       3      86       1
       5       5       4      87       4
       6       6       5      88       1
       7       7       3      89       4
       8       8       6      90       4
       9       3       1      91       5




1
                            STRESS PERIOD NO.    1, LENGTH =  0.1577880E+10
                            -----------------------------------------------

                              NUMBER OF TIME STEPS =    50

                               MULTIPLIER FOR DELT =     1.100

                            INITIAL TIME STEP SIZE =   1355672.    

 WELL NO.  LAYER   ROW   COL   STRESS RATE         
 --------------------------------------------------
      1      1      6      4      -10.00    
      2      1      6      5      -10.00    
      3      1      7      4      -10.00    
      4      1      7      5      -10.00    
      5      1      8      4      -10.00    
      6      1      8      5      -10.00    
      7      1      9      4      -10.00    
      8      1      9      5      -10.00    
      9      1     10      4      -10.00    
     10      1     10      5      -10.00    

     10 WELLS



                         ET SURFACE
 READING ON UNIT   18 WITH FORMAT: (10F7.0)            

            1           2           3           4           5           6           7           8           9          10
 ........................................................................................................................
   1    1110.       1110.       0.000       0.000       0.000       0.000       0.000       0.000       0.000       0.000    
   2    1110.       1105.       1110.       0.000       0.000       1100.       1100.       1110.       0.000       0.000    
   3    0.000       1100.       1095.       1088.       1085.       1085.       1085.       1090.       0.000       0.000    
   4    1105.       1100.       1090.       1083.       1078.       1075.       1080.       1085.       1100.       0.000    
   5    1105.       1090.       1080.       1077.       1074.       1073.       1074.       1078.       1080.       1085.    
   6    1100.       1080.       1075.       1072.       1071.       1069.       1070.       1075.       1080.       1100.    
   7    1100.       1080.       1070.       1065.       1065.       1065.       1065.       1070.       1090.       0.000    
   8    0.000       1075.       1065.       1059.       1059.       1058.       1063.       1070.       1090.       0.000    
   9    0.000       1065.       1055.       1053.       1053.       1052.       1055.       1065.       1090.       0.000    
  10    0.000       1060.       1046.       1046.       1046.       1046.       1044.       1060.       1088.       1100.    
  11    0.000       1045.       1039.       1040.       1041.       1042.       1040.       1050.       1075.       0.000    
  12    1027.       1028.       1028.       1032.       1032.       1033.       1032.       1040.       1060.       0.000    
  13    997.0       1004.       1008.       1014.       1020.       1027.       1032.       1038.       1050.       0.000    
  14    0.000       1030.       1040.       1045.       1050.       1050.       1050.       1050.       1044.       0.000    
  15    0.000       0.000       1080.       1080.       1080.       1080.       0.000       0.000       0.000       0.000    

  EVAPOTRANSPIRATION RATE =  9.500000E-08

         EXTINCTION DEPTH =   15.0000    

 BOUND. NO. LAYER   ROW   COL     STAGE      CONDUCTANCE         
 ----------------------------------------------------------------
      1      1     13      1       988.0          0.3800E-01
      2      1     14      9       1045.          0.3800E-01

      2 GHB CELLS



                           RECHARGE
 READING ON UNIT   19 WITH FORMAT: (10F4.0)            

            1           2           3           4           5           6           7           8           9          10
 ........................................................................................................................
   1   2.5000E-10  1.0000E-09   0.000       0.000       0.000       0.000       0.000       0.000       0.000       0.000    
   2   1.0000E-09  2.5000E-10  1.0000E-09   0.000       0.000      4.0000E-09  4.0000E-09  4.0000E-09   0.000       0.000    
   3    0.000      1.0000E-09  2.5000E-10  1.0000E-09  1.0000E-09  2.5000E-10  2.5000E-10  2.5000E-10   0.000       0.000    
   4   4.0000E-09  2.5000E-10  2.5000E-10  2.5000E-10  2.5000E-10  2.5000E-10  2.5000E-10  2.5000E-10  1.0000E-09   0.000    
   5   4.0000E-09  2.5000E-10  2.5000E-10  2.5000E-10  2.5000E-10  2.5000E-10  2.5000E-10  2.5000E-10  2.5000E-10  2.5000E-10
   6   1.0000E-09  2.5000E-10  2.5000E-10  2.5000E-10  2.5000E-10  2.5000E-10  2.5000E-10  2.5000E-10  2.5000E-10  1.0000E-09
   7   1.0000E-09  2.5000E-10  2.5000E-10  2.5000E-10  2.5000E-10  2.5000E-10  2.5000E-10  2.5000E-10  1.0000E-09   0.000    
   8    0.000      1.0000E-09  2.5000E-10  2.5000E-10  2.5000E-10  2.5000E-10  2.5000E-10  2.5000E-10  1.0000E-09   0.000    
   9    0.000      1.0000E-09  2.5000E-10  2.5000E-10  2.5000E-10  2.5000E-10  2.5000E-10  2.5000E-10  1.0000E-09   0.000    
  10    0.000      1.0000E-09  2.5000E-10  2.5000E-10  2.5000E-10  2.5000E-10  2.5000E-10  2.5000E-10  2.5000E-10  4.0000E-09
  11    0.000      1.0000E-09  2.5000E-10  2.5000E-10  2.5000E-10  2.5000E-10  2.5000E-10  2.5000E-10  1.0000E-09   0.000    
  12   1.0000E-09  2.5000E-10  2.5000E-10  2.5000E-10  2.5000E-10  2.5000E-10  2.5000E-10  2.5000E-10  1.0000E-09   0.000    
  13   2.5000E-10  2.5000E-10  2.5000E-10  2.5000E-10  2.5000E-10  2.5000E-10  2.5000E-10  2.5000E-10  1.0000E-09   0.000    
  14    0.000      2.5000E-10  2.5000E-10  2.5000E-10  2.5000E-10  2.5000E-10  1.0000E-09  1.0000E-09  2.5000E-10   0.000    
  15    0.000       0.000      1.0000E-09  1.0000E-09  1.0000E-09  1.0000E-09   0.000       0.000       0.000       0.000    



 CLASSIFICATION & COUNT OF STREAM SEGMENTS BASED ON SOURCE OF INFLOW:

                HEADWATER     DIVERSION     RECEIVES TRIBUTARY FLOW
                ---------     ---------     -----------------------
                     3              1               4



                    INPUT DATA FOR EACH STREAM SEGMENT
 ---------------------------------------------------------------------------------------------

 SEGMENT    SEG.     INFLOW   OVERLAND   STREAM    STREAM   ICALC  OUTFLOW  DIVERSION PRIORITY
    NO.    LENGTH     RATE     RUNOFF      ET       PPT.    METH.  TO SEG.  FROM SEG.    NO.

      1  2.305E+04 2.500E+01 0.000E+00 0.000E+00 0.000E+00    4        2        0        0
      2  2.650E+04 0.000E+00 0.000E+00 0.000E+00 0.000E+00    1        6        0        0
      3  2.750E+04 1.000E+01 0.000E+00 0.000E+00 0.000E+00    0        5        1        0
      4  1.100E+04 1.000E+01 0.000E+00 0.000E+00 0.000E+00    1        5        0        0
      5  1.500E+04 0.000E+00 0.000E+00 0.000E+00 0.000E+00    3        6        0        0
      6  2.200E+04 0.000E+00 0.000E+00 0.000E+00 0.000E+00    1        8        0        0
      7  1.550E+04 1.500E+02 0.000E+00 0.000E+00 0.000E+00    2        8        0        0
      8  2.800E+04 0.000E+00 0.000E+00 0.000E+00 0.000E+00    2        0        0        0


         STREAMBED PROPERTIES AND STREAM DIMENSIONS

 SEGMENT     BED HYD. COND.      BED THICKNESS     ELEV.-TOP OF BED     WIDTH OF STREAM     DEPTH OF STREAM    STREAM ROUGHNESS
    No.     UPPER     LOWER     UPPER     LOWER     UPPER     LOWER     UPPER     LOWER     UPPER     LOWER   CHANNEL      BANK

     1  3.000E-05 3.000E-05 3.000E+00 3.000E+00 1.095E+03 1.075E+03
     2  3.000E-05 3.000E-05 3.000E+00 3.000E+00 1.075E+03 1.050E+03 1.200E+01 1.200E+01                     3.000E-02
     3  3.000E-05 3.000E-05 2.000E+00 2.000E+00 1.075E+03 1.060E+03 1.000E+01 6.000E+00 2.000E+00 1.000E+00
     4  3.000E-05 3.000E-05 3.000E+00 3.000E+00 1.080E+03 1.060E+03 1.000E+01 1.000E+01                     3.000E-02
     5  3.000E-05 3.000E-05 3.000E+00 3.000E+00 1.060E+03 1.045E+03
     6  3.000E-05 3.000E-05 3.000E+00 3.000E+00 1.045E+03 1.025E+03 1.200E+01 1.200E+01                     3.000E-02
     7  6.000E-05 6.000E-05 3.000E+00 3.000E+00 1.040E+03 1.025E+03                                         2.500E-02 4.500E-02
     8  6.000E-05 6.000E-05 3.000E+00 3.000E+00 1.025E+03 9.900E+02                                         2.500E-02 4.500E-02

  EIGHT POINT CROSS SECTION DATA FOR SEGMENTS WITH ICALC = 2
    X VALUES X VALUES START FROM LEFT SIDE LOOKING DOWNSTREAM

     SEGMENT NO.        X1        X2        X3        X4        X5        X6        X7        X8
            7      0.000E+00 1.000E+01 8.000E+01 1.000E+02 1.500E+02 1.700E+02 2.400E+02 2.500E+02
            8      0.000E+00 1.000E+01 8.000E+01 1.000E+02 1.500E+02 1.700E+02 2.400E+02 2.500E+02

    Z VALUES ARE RELATIVE TO STREAMBED ELEVATION

     SEGMENT NO.          Z1        Z2        Z3        Z4        Z5        Z6        Z7        Z8
            7      2.000E+01 1.300E+01 1.000E+01 2.000E+00 0.000E+00 1.000E+01 1.300E+01 2.000E+01
            8      2.500E+01 1.700E+01 1.300E+01 4.000E+00 0.000E+00 1.000E+01 1.600E+01 2.000E+01

 STREAMFLOW RELATION WITH DEPTH IS BASED ON EQUATION Q = CDPTH*(DEPTH)**FDPTH
 STREAMFLOW RELATION WITH WIDTH IS BASED ON EQUATION Q = AWDTH*(WIDTH)**BWDTH

 SEGMENT NO.      CDPTH     FDPTH    AWDTH     BWDTH

          5 3.000E-01 3.500E-01 3.800E+00 6.000E-01

 STREAMFLOW RELATION WITH DEPTH AND WIDTH IS BASED ON TABULATED VALUES

  SEGMENT NO.   STREAMFLOW       DEPTH       WIDTH

          1     5.0000E-01   2.5000E-01   3.0000E+00
          1     1.0000E+00   4.0000E-01   3.5000E+00
          1     2.0000E+00   5.5000E-01   4.2000E+00
          1     4.0000E+00   7.0000E-01   5.3000E+00
          1     7.0000E+00   8.0000E-01   7.0000E+00
          1     1.0000E+01   9.0000E-01   8.5000E+00
          1     2.0000E+01   1.1000E+00   1.2000E+01
          1     3.0000E+01   1.2500E+00   1.4000E+01
          1     5.0000E+01   1.4000E+00   1.7000E+01
          1     7.5000E+01   1.7000E+00   2.0000E+01
          1     1.0000E+02   2.6000E+00   2.2000E+01



 
 SOLVING FOR HEAD 

 AVERAGE SEED = 0.00926851
 MINIMUM SEED = 0.00187707

     5 ITERATION PARAMETERS CALCULATED FROM AVERAGE SEED:

  0.000000E+00 0.689721E+00 0.903727E+00 0.970128E+00 0.990731E+00

     6 ITERATIONS FOR TIME STEP   1 IN STRESS PERIOD    1

 MAXIMUM HEAD CHANGE FOR EACH ITERATION:

    HEAD CHANGE   HEAD CHANGE   HEAD CHANGE   HEAD CHANGE   HEAD CHANGE
  LAYER,ROW,COL LAYER,ROW,COL LAYER,ROW,COL LAYER,ROW,COL LAYER,ROW,COL
 ----------------------------------------------------------------------
     -1.862       -0.4428       -0.9348E-01   -0.1904E-01   -0.3841E-02
  (  1,  9,  4) (  1,  8,  4) (  1,  8,  4) (  1,  8,  4) (  1,  8,  5)
    -0.7524E-03
  (  1,  8,  5)


 OUTPUT CONTROL FOR STRESS PERIOD    1   TIME STEP   1
    PRINT BUDGET
    PRINT HEAD FOR ALL LAYERS
    SAVE BUDGET

            WELLS   PERIOD    1   STEP   1
 WELL      1   LAYER   1   ROW     6   COL     4   RATE    -10.0000    
 WELL      2   LAYER   1   ROW     6   COL     5   RATE    -10.0000    
 WELL      3   LAYER   1   ROW     7   COL     4   RATE    -10.0000    
 WELL      4   LAYER   1   ROW     7   COL     5   RATE    -10.0000    
 WELL      5   LAYER   1   ROW     8   COL     4   RATE    -10.0000    
 WELL      6   LAYER   1   ROW     8   COL     5   RATE    -10.0000    
 WELL      7   LAYER   1   ROW     9   COL     4   RATE    -10.0000    
 WELL      8   LAYER   1   ROW     9   COL     5   RATE    -10.0000    
 WELL      9   LAYER   1   ROW    10   COL     4   RATE    -10.0000    
 WELL     10   LAYER   1   ROW    10   COL     5   RATE    -10.0000    
 UBUDSV SAVING "              ET" ON UNIT 59 AT TIME STEP  1, STRESS PERIOD    1

  HEAD DEP BOUNDS   PERIOD    1   STEP   1
 BOUNDARY      1   LAYER   1   ROW    13   COL     1   RATE   -0.247595    
 BOUNDARY      2   LAYER   1   ROW    14   COL     9   RATE    0.215788    



   STREAM LEAKAGE   PERIOD    1   STEP   1

 LAYER ROW COL. STREAM  RCH.  FLOW INTO    FLOW TO  FLOW OUT OF  OVRLND.   DIRECT    STREAM    STREAM    STREAM    STREAM  STREAMBED  STREAMBED
                SEG.NO.  NO.  STRM. RCH.   AQUIFER   STRM. RCH.  RUNOFF    PRECIP      ET       HEAD      DEPTH     WIDTH  CONDCTNC.   GRADIENT

   1    1    1     1     1    2.500E+01   7.775E-01  2.422E+01  0.00E+00  0.00E+00  0.00E+00  1.09E+03  1.17E+00  1.30E+01  5.84E-01  4.44E-01
   1    2    2     1     2    2.422E+01   2.215E+00  2.201E+01  0.00E+00  0.00E+00  0.00E+00  1.09E+03  1.15E+00  1.27E+01  8.87E-01  8.32E-01
   1    3    3     1     3    2.201E+01   2.987E+00  1.902E+01  0.00E+00  0.00E+00  0.00E+00  1.08E+03  1.11E+00  1.21E+01  7.27E-01  1.37E+00
   1    3    4     1     4    1.902E+01   2.549E+00  1.647E+01  0.00E+00  0.00E+00  0.00E+00  1.08E+03  1.06E+00  1.13E+01  6.28E-01  1.35E+00
   1    4    5     2     1    6.471E+00   2.704E+00  3.767E+00  0.00E+00  0.00E+00  0.00E+00  1.07E+03  4.66E-01  1.20E+01  7.80E-01  1.16E+00
   1    5    6     2     2    3.767E+00   1.994E+00  1.774E+00  0.00E+00  0.00E+00  0.00E+00  1.07E+03  3.23E-01  1.20E+01  6.00E-01  1.11E+00
   1    6    6     2     3    1.774E+00   1.774E+00  0.000E+00  0.00E+00  0.00E+00  0.00E+00  1.06E+03  1.63E-01  1.20E+01  6.00E-01  1.03E+00
   1    7    6     2     4    0.000E+00   0.000E+00  0.000E+00  0.00E+00  0.00E+00  0.00E+00  1.06E+03  0.00E+00  1.20E+01  6.00E-01  1.00E+00
   1    8    6     2     5    0.000E+00   0.000E+00  0.000E+00  0.00E+00  0.00E+00  0.00E+00  1.05E+03  0.00E+00  1.20E+01  6.00E-01  1.00E+00
   1    3    5     3     1    1.000E+01   2.203E+00  7.797E+00  0.00E+00  0.00E+00  0.00E+00  1.08E+03  1.91E+00  9.64E+00  7.23E-01  1.52E+00
   1    3    6     3     2    7.797E+00   1.358E+00  6.439E+00  0.00E+00  0.00E+00  0.00E+00  1.07E+03  1.73E+00  8.91E+00  6.68E-01  1.02E+00
   1    3    7     3     3    6.439E+00   4.164E-01  6.022E+00  0.00E+00  0.00E+00  0.00E+00  1.07E+03  1.55E+00  8.22E+00  5.55E-01  3.75E-01
   1    4    8     3     4    6.022E+00   6.120E-01  5.410E+00  0.00E+00  0.00E+00  0.00E+00  1.07E+03  1.36E+00  7.45E+00  6.71E-01  4.56E-01
   1    5    8     3     5    5.410E+00   8.049E-01  4.605E+00  0.00E+00  0.00E+00  0.00E+00  1.06E+03  1.16E+00  6.65E+00  4.99E-01  8.06E-01
   1    6    8     3     6    4.605E+00   4.588E-01  4.147E+00  0.00E+00  0.00E+00  0.00E+00  1.06E+03  1.04E+00  6.15E+00  1.84E-01  1.24E+00
   1    5   10     4     1    1.000E+01   9.052E-01  9.095E+00  0.00E+00  0.00E+00  0.00E+00  1.08E+03  6.21E-01  1.00E+01  2.50E-01  1.21E+00
   1    5    9     4     2    9.095E+00   1.784E+00  7.311E+00  0.00E+00  0.00E+00  0.00E+00  1.07E+03  5.67E-01  1.00E+01  5.00E-01  1.19E+00
   1    6    8     4     3    7.311E+00   1.226E+00  6.086E+00  0.00E+00  0.00E+00  0.00E+00  1.06E+03  5.02E-01  1.00E+01  3.50E-01  1.17E+00
   1    6    8     5     1    1.023E+01  -2.554E-01  1.049E+01  0.00E+00  0.00E+00  0.00E+00  1.06E+03  6.80E-01  1.55E+01  6.18E-01 -1.38E-01
   1    7    7     5     2    1.049E+01   7.774E-01  9.710E+00  0.00E+00  0.00E+00  0.00E+00  1.05E+03  6.74E-01  1.52E+01  7.61E-01  3.41E-01
   1    8    7     5     3    9.710E+00   1.076E+00  8.634E+00  0.00E+00  0.00E+00  0.00E+00  1.05E+03  6.52E-01  1.44E+01  5.03E-01  7.13E-01
   1    8    6     5     4    8.634E+00   2.608E-01  8.373E+00  0.00E+00  0.00E+00  0.00E+00  1.05E+03  6.35E-01  1.37E+01  3.43E-01  2.53E-01
   1    9    6     6     1    8.373E+00   1.585E+00  6.788E+00  0.00E+00  0.00E+00  0.00E+00  1.04E+03  5.97E-01  1.20E+01  6.00E-01  8.81E-01
   1   10    7     6     2    6.788E+00   1.352E+00  5.436E+00  0.00E+00  0.00E+00  0.00E+00  1.04E+03  5.24E-01  1.20E+01  6.00E-01  7.51E-01
   1   11    7     6     3    5.436E+00   1.207E+00  4.230E+00  0.00E+00  0.00E+00  0.00E+00  1.03E+03  4.56E-01  1.20E+01  6.00E-01  6.70E-01
   1   12    7     6     4    4.230E+00   5.463E-01  3.683E+00  0.00E+00  0.00E+00  0.00E+00  1.03E+03  4.04E-01  1.20E+01  6.00E-01  3.04E-01
   1   13    7     6     5    3.683E+00  -6.671E-01  4.350E+00  0.00E+00  0.00E+00  0.00E+00  1.03E+03  4.08E-01  1.20E+01  2.40E-01 -9.27E-01
   1   14    9     7     1    1.500E+02   3.033E+00  1.470E+02  0.00E+00  0.00E+00  0.00E+00  1.04E+03  2.28E+00  5.53E+01  5.59E+00  1.81E-01
   1   13    8     7     2    1.470E+02   4.064E+00  1.429E+02  0.00E+00  0.00E+00  0.00E+00  1.03E+03  2.26E+00  5.52E+01  6.14E+00  2.21E-01
   1   13    7     7     3    1.429E+02   3.164E+00  1.397E+02  0.00E+00  0.00E+00  0.00E+00  1.03E+03  2.24E+00  5.51E+01  5.57E+00  1.89E-01
   1   13    6     8     1    1.441E+02   1.510E+00  1.426E+02  0.00E+00  0.00E+00  0.00E+00  1.02E+03  2.77E+00  4.02E+01  4.09E+00  1.23E-01
   1   13    5     8     2    1.426E+02  -1.240E+00  1.438E+02  0.00E+00  0.00E+00  0.00E+00  1.02E+03  2.77E+00  4.01E+01  4.09E+00 -1.01E-01
   1   13    4     8     3    1.438E+02  -2.983E+00  1.468E+02  0.00E+00  0.00E+00  0.00E+00  1.01E+03  2.78E+00  4.04E+01  4.11E+00 -2.42E-01
   1   13    3     8     4    1.468E+02  -3.105E+00  1.499E+02  0.00E+00  0.00E+00  0.00E+00  1.01E+03  2.81E+00  4.07E+01  4.15E+00 -2.50E-01
   1   13    2     8     5    1.499E+02  -1.176E+00  1.511E+02  0.00E+00  0.00E+00  0.00E+00  1.00E+03  2.82E+00  4.09E+01  4.17E+00 -9.41E-02
   1   13    1     8     6    1.511E+02   4.560E-01  1.506E+02  0.00E+00  0.00E+00  0.00E+00  9.95E+02  2.82E+00  4.09E+01  2.50E+00  6.07E-02



1
              HEAD IN LAYER   1 AT END OF TIME STEP   1 IN STRESS PERIOD    1
  ---------------------------------------------------------------------------

           1       2       3       4       5       6       7       8       9      10
 ...................................................................................
   1  1092.89 1089.40 6999.00 6999.00 6999.00 6999.00 6999.00 6999.00 6999.00 6999.00
   2  1089.90 1086.71 1081.41 6999.00 6999.00 1072.27 1071.48 1071.08 6999.00 6999.00
   3  6999.00 1079.40 1077.52 1073.59 1072.50 1070.60 1069.12 1068.33 6999.00 6999.00
   4  1069.09 1070.68 1070.19 1066.97 1065.42 1063.60 1063.89 1065.91 1066.09 6999.00
   5  1064.89 1063.90 1062.85 1061.15 1060.50 1060.70 1060.19 1062.01 1065.69 1068.10
   6  1059.80 1058.29 1056.94 1054.27 1054.34 1056.59 1057.16 1059.09 1061.90 1065.60
   7  1056.10 1052.99 1051.42 1048.80 1049.10 1051.52 1053.15 1055.48 1056.50 6999.00
   8  6999.00 1046.29 1045.44 1043.08 1043.57 1046.12 1047.76 1049.89 1050.40 6999.00
   9  6999.00 1039.08 1038.85 1037.09 1037.86 1040.68 1041.56 1042.89 1044.00 6999.00
  10  6999.00 1031.09 1031.59 1031.16 1032.39 1035.11 1036.45 1037.60 1039.30 1041.60
  11  6999.00 1021.40 1023.06 1026.51 1028.40 1030.42 1032.08 1033.59 1035.70 6999.00
  12  1001.20 1009.21 1014.50 1019.56 1023.07 1026.18 1028.58 1030.40 1034.30 6999.00
  13   994.52  999.98 1006.68 1012.88 1018.70 1024.28 1029.10 1034.10 1036.10 6999.00
  14  6999.00 1004.00 1008.99 1013.70 1018.90 1024.01 1029.50 1035.10 1039.32 6999.00
  15  6999.00 6999.00 1011.90 1015.10 1019.10 1022.40 6999.00 6999.00 6999.00 6999.00
1
  VOLUMETRIC BUDGET FOR ENTIRE MODEL AT END OF TIME STEP  1 IN STRESS PERIOD   1
  ------------------------------------------------------------------------------

     CUMULATIVE VOLUMES      L**3       RATES FOR THIS TIME STEP      L**3/T
     ------------------                 ------------------------

           IN:                                      IN:
           ---                                      ---
             STORAGE =   132192536.0000               STORAGE =          97.5107
       CONSTANT HEAD =           0.0000         CONSTANT HEAD =           0.0000
               WELLS =           0.0000                 WELLS =           0.0000
                  ET =           0.0000                    ET =           0.0000
     HEAD DEP BOUNDS =      292538.1880       HEAD DEP BOUNDS =           0.2158
            RECHARGE =     2431736.7500              RECHARGE =           1.7937
      STREAM LEAKAGE =    59377824.0000        STREAM LEAKAGE =          43.7995

            TOTAL IN =   194294640.0000              TOTAL IN =         143.3198

          OUT:                                     OUT:
          ----                                     ----
             STORAGE =      730438.2500               STORAGE =           0.5388
       CONSTANT HEAD =           0.0000         CONSTANT HEAD =           0.0000
               WELLS =   135567216.0000                 WELLS =         100.0000
                  ET =    44907688.0000                    ET =          33.1258
     HEAD DEP BOUNDS =      335657.6250       HEAD DEP BOUNDS =           0.2476
            RECHARGE =           0.0000              RECHARGE =           0.0000
      STREAM LEAKAGE =    12779793.0000        STREAM LEAKAGE =           9.4269

           TOTAL OUT =   194320800.0000             TOTAL OUT =         143.3391

            IN - OUT =      -26157.9375              IN - OUT =      -1.9297E-02

 PERCENT DISCREPANCY =          -0.01     PERCENT DISCREPANCY =          -0.01






          TIME SUMMARY AT END OF TIME STEP   1 IN STRESS PERIOD    1
                    SECONDS     MINUTES      HOURS       DAYS        YEARS
                    -----------------------------------------------------------
   TIME STEP LENGTH 1.35567E+06  22595.      376.58      15.691     4.29587E-02
 STRESS PERIOD TIME 1.35567E+06  22595.      376.58      15.691     4.29587E-02
         TOTAL TIME 1.35567E+06  22595.      376.58      15.691     4.29587E-02
1
 
 SOLVING FOR HEAD 
     6 ITERATIONS FOR TIME STEP   2 IN STRESS PERIOD    1

 MAXIMUM HEAD CHANGE FOR EACH ITERATION:

    HEAD CHANGE   HEAD CHANGE   HEAD CHANGE   HEAD CHANGE   HEAD CHANGE
  LAYER,ROW,COL LAYER,ROW,COL LAYER,ROW,COL LAYER,ROW,COL LAYER,ROW,COL
 ----------------------------------------------------------------------
     -1.866       -0.4286       -0.8996E-01   -0.1848E-01   -0.3704E-02
  (  1,  8,  4) (  1,  8,  4) (  1,  8,  4) (  1,  8,  4) (  1,  8,  4)
    -0.7252E-03
  (  1,  8,  4)


 NO OUTPUT CONTROL FOR STRESS PERIOD    1   TIME STEP   2
 
 SOLVING FOR HEAD 
     6 ITERATIONS FOR TIME STEP   3 IN STRESS PERIOD    1

 MAXIMUM HEAD CHANGE FOR EACH ITERATION:

    HEAD CHANGE   HEAD CHANGE   HEAD CHANGE   HEAD CHANGE   HEAD CHANGE
  LAYER,ROW,COL LAYER,ROW,COL LAYER,ROW,COL LAYER,ROW,COL LAYER,ROW,COL
 ----------------------------------------------------------------------
     -1.819       -0.4241       -0.9008E-01   -0.1861E-01   -0.3751E-02
  (  1,  8,  4) (  1,  8,  4) (  1,  8,  4) (  1,  8,  4) (  1,  8,  4)
    -0.7334E-03
  (  1,  8,  4)


 NO OUTPUT CONTROL FOR STRESS PERIOD    1   TIME STEP   3
 
 SOLVING FOR HEAD 
     6 ITERATIONS FOR TIME STEP   4 IN STRESS PERIOD    1

 MAXIMUM HEAD CHANGE FOR EACH ITERATION:

    HEAD CHANGE   HEAD CHANGE   HEAD CHANGE   HEAD CHANGE   HEAD CHANGE
  LAYER,ROW,COL LAYER,ROW,COL LAYER,ROW,COL LAYER,ROW,COL LAYER,ROW,COL
 ----------------------------------------------------------------------
     -1.750       -0.4169       -0.8959E-01   -0.1869E-01   -0.3779E-02
  (  1,  8,  4) (  1,  8,  4) (  1,  8,  4) (  1,  8,  4) (  1,  8,  4)
    -0.7384E-03
  (  1,  8,  4)


 NO OUTPUT CONTROL FOR STRESS PERIOD    1   TIME STEP   4
 
 SOLVING FOR HEAD 
     6 ITERATIONS FOR TIME STEP   5 IN STRESS PERIOD    1

 MAXIMUM HEAD CHANGE FOR EACH ITERATION:

    HEAD CHANGE   HEAD CHANGE   HEAD CHANGE   HEAD CHANGE   HEAD CHANGE
  LAYER,ROW,COL LAYER,ROW,COL LAYER,ROW,COL LAYER,ROW,COL LAYER,ROW,COL
 ----------------------------------------------------------------------
     -1.671       -0.4088       -0.8933E-01   -0.1877E-01   -0.3812E-02
  (  1,  8,  4) (  1,  8,  4) (  1,  8,  4) (  1,  8,  4) (  1,  8,  4)
    -0.7418E-03
  (  1,  8,  4)


 OUTPUT CONTROL FOR STRESS PERIOD    1   TIME STEP   5
    PRINT BUDGET
    PRINT HEAD FOR ALL LAYERS
    SAVE BUDGET

            WELLS   PERIOD    1   STEP   5
 WELL      1   LAYER   1   ROW     6   COL     4   RATE    -10.0000    
 WELL      2   LAYER   1   ROW     6   COL     5   RATE    -10.0000    
 WELL      3   LAYER   1   ROW     7   COL     4   RATE    -10.0000    
 WELL      4   LAYER   1   ROW     7   COL     5   RATE    -10.0000    
 WELL      5   LAYER   1   ROW     8   COL     4   RATE    -10.0000    
 WELL      6   LAYER   1   ROW     8   COL     5   RATE    -10.0000    
 WELL      7   LAYER   1   ROW     9   COL     4   RATE    -10.0000    
 WELL      8   LAYER   1   ROW     9   COL     5   RATE    -10.0000    
 WELL      9   LAYER   1   ROW    10   COL     4   RATE    -10.0000    
 WELL     10   LAYER   1   ROW    10   COL     5   RATE    -10.0000    
 UBUDSV SAVING "              ET" ON UNIT 59 AT TIME STEP  5, STRESS PERIOD    1

  HEAD DEP BOUNDS   PERIOD    1   STEP   5
 BOUNDARY      1   LAYER   1   ROW    13   COL     1   RATE   -0.247358    
 BOUNDARY      2   LAYER   1   ROW    14   COL     9   RATE    0.215278    



   STREAM LEAKAGE   PERIOD    1   STEP   5

 LAYER ROW COL. STREAM  RCH.  FLOW INTO    FLOW TO  FLOW OUT OF  OVRLND.   DIRECT    STREAM    STREAM    STREAM    STREAM  STREAMBED  STREAMBED
                SEG.NO.  NO.  STRM. RCH.   AQUIFER   STRM. RCH.  RUNOFF    PRECIP      ET       HEAD      DEPTH     WIDTH  CONDCTNC.   GRADIENT

   1    1    1     1     1    2.500E+01   7.912E-01  2.421E+01  0.00E+00  0.00E+00  0.00E+00  1.09E+03  1.17E+00  1.30E+01  5.84E-01  4.51E-01
   1    2    2     1     2    2.421E+01   2.190E+00  2.202E+01  0.00E+00  0.00E+00  0.00E+00  1.09E+03  1.15E+00  1.27E+01  8.87E-01  8.22E-01
   1    3    3     1     3    2.202E+01   2.988E+00  1.903E+01  0.00E+00  0.00E+00  0.00E+00  1.08E+03  1.11E+00  1.21E+01  7.27E-01  1.37E+00
   1    3    4     1     4    1.903E+01   2.550E+00  1.648E+01  0.00E+00  0.00E+00  0.00E+00  1.08E+03  1.06E+00  1.13E+01  6.28E-01  1.35E+00
   1    4    5     2     1    6.481E+00   2.704E+00  3.777E+00  0.00E+00  0.00E+00  0.00E+00  1.07E+03  4.67E-01  1.20E+01  7.80E-01  1.16E+00
   1    5    6     2     2    3.777E+00   1.994E+00  1.783E+00  0.00E+00  0.00E+00  0.00E+00  1.07E+03  3.23E-01  1.20E+01  6.00E-01  1.11E+00
   1    6    6     2     3    1.783E+00   1.783E+00  0.000E+00  0.00E+00  0.00E+00  0.00E+00  1.06E+03  1.63E-01  1.20E+01  6.00E-01  1.03E+00
   1    7    6     2     4    0.000E+00   0.000E+00  0.000E+00  0.00E+00  0.00E+00  0.00E+00  1.06E+03  0.00E+00  1.20E+01  6.00E-01  1.00E+00
   1    8    6     2     5    0.000E+00   0.000E+00  0.000E+00  0.00E+00  0.00E+00  0.00E+00  1.05E+03  0.00E+00  1.20E+01  6.00E-01  1.00E+00
   1    3    5     3     1    1.000E+01   2.327E+00  7.673E+00  0.00E+00  0.00E+00  0.00E+00  1.08E+03  1.91E+00  9.64E+00  7.23E-01  1.61E+00
   1    3    6     3     2    7.673E+00   1.407E+00  6.266E+00  0.00E+00  0.00E+00  0.00E+00  1.07E+03  1.73E+00  8.91E+00  6.68E-01  1.05E+00
   1    3    7     3     3    6.266E+00   4.080E-01  5.858E+00  0.00E+00  0.00E+00  0.00E+00  1.07E+03  1.55E+00  8.22E+00  5.55E-01  3.68E-01
   1    4    8     3     4    5.858E+00   6.214E-01  5.237E+00  0.00E+00  0.00E+00  0.00E+00  1.07E+03  1.36E+00  7.45E+00  6.71E-01  4.63E-01
   1    5    8     3     5    5.237E+00   8.779E-01  4.359E+00  0.00E+00  0.00E+00  0.00E+00  1.06E+03  1.16E+00  6.65E+00  4.99E-01  8.79E-01
   1    6    8     3     6    4.359E+00   5.029E-01  3.856E+00  0.00E+00  0.00E+00  0.00E+00  1.06E+03  1.04E+00  6.15E+00  1.84E-01  1.36E+00
   1    5   10     4     1    1.000E+01   9.052E-01  9.095E+00  0.00E+00  0.00E+00  0.00E+00  1.08E+03  6.21E-01  1.00E+01  2.50E-01  1.21E+00
   1    5    9     4     2    9.095E+00   1.784E+00  7.311E+00  0.00E+00  0.00E+00  0.00E+00  1.07E+03  5.67E-01  1.00E+01  5.00E-01  1.19E+00
   1    6    8     4     3    7.311E+00   1.226E+00  6.086E+00  0.00E+00  0.00E+00  0.00E+00  1.06E+03  5.02E-01  1.00E+01  3.50E-01  1.17E+00
   1    6    8     5     1    9.942E+00  -1.103E-01  1.005E+01  0.00E+00  0.00E+00  0.00E+00  1.06E+03  6.72E-01  1.51E+01  6.05E-01 -6.08E-02
   1    7    7     5     2    1.005E+01   1.426E+00  8.626E+00  0.00E+00  0.00E+00  0.00E+00  1.05E+03  6.56E-01  1.45E+01  7.26E-01  6.54E-01
   1    8    7     5     3    8.626E+00   1.486E+00  7.140E+00  0.00E+00  0.00E+00  0.00E+00  1.05E+03  6.18E-01  1.31E+01  4.59E-01  1.08E+00
   1    8    6     5     4    7.140E+00   1.057E+00  6.084E+00  0.00E+00  0.00E+00  0.00E+00  1.05E+03  5.81E-01  1.18E+01  2.95E-01  1.19E+00
   1    9    6     6     1    6.084E+00   2.080E+00  4.003E+00  0.00E+00  0.00E+00  0.00E+00  1.04E+03  4.67E-01  1.20E+01  6.00E-01  1.16E+00
   1   10    7     6     2    4.003E+00   1.758E+00  2.246E+00  0.00E+00  0.00E+00  0.00E+00  1.04E+03  3.51E-01  1.20E+01  6.00E-01  9.76E-01
   1   11    7     6     3    2.246E+00   1.350E+00  8.958E-01  0.00E+00  0.00E+00  0.00E+00  1.03E+03  2.32E-01  1.20E+01  6.00E-01  7.50E-01
   1   12    7     6     4    8.958E-01   5.170E-01  3.788E-01  0.00E+00  0.00E+00  0.00E+00  1.03E+03  1.35E-01  1.20E+01  6.00E-01  2.87E-01
   1   13    7     6     5    3.788E-01  -7.223E-01  1.101E+00  0.00E+00  0.00E+00  0.00E+00  1.03E+03  1.48E-01  1.20E+01  2.40E-01 -1.00E+00
   1   14    9     7     1    1.500E+02   2.960E+00  1.470E+02  0.00E+00  0.00E+00  0.00E+00  1.04E+03  2.28E+00  5.53E+01  5.59E+00  1.76E-01
   1   13    8     7     2    1.470E+02   4.070E+00  1.430E+02  0.00E+00  0.00E+00  0.00E+00  1.03E+03  2.26E+00  5.52E+01  6.14E+00  2.21E-01
   1   13    7     7     3    1.430E+02   3.329E+00  1.396E+02  0.00E+00  0.00E+00  0.00E+00  1.03E+03  2.24E+00  5.51E+01  5.57E+00  1.99E-01
   1   13    6     8     1    1.407E+02   1.740E+00  1.390E+02  0.00E+00  0.00E+00  0.00E+00  1.02E+03  2.74E+00  3.98E+01  4.05E+00  1.43E-01
   1   13    5     8     2    1.390E+02  -8.799E-01  1.399E+02  0.00E+00  0.00E+00  0.00E+00  1.02E+03  2.74E+00  3.97E+01  4.05E+00 -7.24E-02
   1   13    4     8     3    1.399E+02  -2.617E+00  1.425E+02  0.00E+00  0.00E+00  0.00E+00  1.01E+03  2.75E+00  3.99E+01  4.07E+00 -2.14E-01
   1   13    3     8     4    1.425E+02  -2.951E+00  1.455E+02  0.00E+00  0.00E+00  0.00E+00  1.01E+03  2.77E+00  4.02E+01  4.10E+00 -2.40E-01
   1   13    2     8     5    1.455E+02  -1.127E+00  1.466E+02  0.00E+00  0.00E+00  0.00E+00  1.00E+03  2.79E+00  4.04E+01  4.12E+00 -9.11E-02
   1   13    1     8     6    1.466E+02   3.880E-01  1.462E+02  0.00E+00  0.00E+00  0.00E+00  9.95E+02  2.79E+00  4.05E+01  2.47E+00  5.23E-02



1
              HEAD IN LAYER   1 AT END OF TIME STEP   5 IN STRESS PERIOD    1
  ---------------------------------------------------------------------------

           1       2       3       4       5       6       7       8       9      10
 ...................................................................................
   1  1092.87 1089.42 6999.00 6999.00 6999.00 6999.00 6999.00 6999.00 6999.00 6999.00
   2  1089.89 1086.74 1081.42 6999.00 6999.00 1072.13 1071.37 1070.99 6999.00 6999.00
   3  6999.00 1079.40 1077.44 1073.29 1072.33 1070.53 1069.14 1068.41 6999.00 6999.00
   4  1069.01 1070.57 1069.81 1065.94 1064.42 1063.00 1063.67 1065.89 1066.04 6999.00
   5  1064.84 1063.71 1061.67 1058.19 1057.97 1059.39 1059.66 1061.86 1065.64 1068.10
   6  1059.76 1057.83 1054.16 1047.44 1048.49 1054.04 1056.29 1058.85 1061.87 1065.59
   7  1056.07 1052.41 1047.97 1040.14 1041.73 1048.29 1052.19 1055.15 1056.46 6999.00
   8  6999.00 1045.75 1041.99 1033.85 1035.83 1042.92 1046.63 1049.64 1050.39 6999.00
   9  6999.00 1038.57 1035.63 1028.28 1030.62 1037.66 1040.42 1042.66 1044.00 6999.00
  10  6999.00 1030.73 1029.19 1024.24 1026.70 1032.65 1035.60 1037.44 1039.29 1041.59
  11  6999.00 1021.28 1022.13 1023.80 1026.02 1029.21 1031.62 1033.48 1035.70 6999.00
  12  1001.18 1009.18 1014.22 1018.78 1022.32 1025.73 1028.36 1030.35 1034.29 6999.00
  13   994.51  999.94 1006.62 1012.77 1018.58 1024.19 1029.07 1034.10 1036.12 6999.00
  14  6999.00 1004.00 1008.97 1013.69 1018.87 1024.01 1029.48 1035.09 1039.33 6999.00
  15  6999.00 6999.00 1011.91 1015.10 1019.11 1022.39 6999.00 6999.00 6999.00 6999.00
1
  VOLUMETRIC BUDGET FOR ENTIRE MODEL AT END OF TIME STEP  5 IN STRESS PERIOD   1
  ------------------------------------------------------------------------------

     CUMULATIVE VOLUMES      L**3       RATES FOR THIS TIME STEP      L**3/T
     ------------------                 ------------------------

           IN:                                      IN:
           ---                                      ---
             STORAGE =   762340736.0000               STORAGE =          87.3527
       CONSTANT HEAD =           0.0000         CONSTANT HEAD =           0.0000
               WELLS =           0.0000                 WELLS =           0.0000
                  ET =           0.0000                    ET =           0.0000
     HEAD DEP BOUNDS =     1782867.7500       HEAD DEP BOUNDS =           0.2153
            RECHARGE =    14845997.0000              RECHARGE =           1.7937
      STREAM LEAKAGE =   377236256.0000        STREAM LEAKAGE =          47.2179

            TOTAL IN =  1156205820.0000              TOTAL IN =         136.5797

          OUT:                                     OUT:
          ----                                     ----
             STORAGE =     1657257.1200               STORAGE =       4.9816E-02
       CONSTANT HEAD =           0.0000         CONSTANT HEAD =           0.0000
               WELLS =   827651456.0000                 WELLS =         100.0000
                  ET =   250988848.0000                    ET =          27.9010
     HEAD DEP BOUNDS =     2049514.0000       HEAD DEP BOUNDS =           0.2474
            RECHARGE =           0.0000              RECHARGE =           0.0000
      STREAM LEAKAGE =    74026664.0000        STREAM LEAKAGE =           8.4071

           TOTAL OUT =  1156373760.0000             TOTAL OUT =         136.6053

            IN - OUT =     -167882.3750              IN - OUT =      -2.5620E-02

 PERCENT DISCREPANCY =          -0.01     PERCENT DISCREPANCY =          -0.02






          TIME SUMMARY AT END OF TIME STEP   5 IN STRESS PERIOD    1
                    SECONDS     MINUTES      HOURS       DAYS        YEARS
                    -----------------------------------------------------------
   TIME STEP LENGTH 1.98484E+06  33081.      551.34      22.973     6.28958E-02
 STRESS PERIOD TIME 8.27652E+06 1.37942E+05  2299.0      95.793     0.26227    
         TOTAL TIME 8.27652E+06 1.37942E+05  2299.0      95.793     0.26227    
1
 
 SOLVING FOR HEAD 
     7 ITERATIONS FOR TIME STEP   6 IN STRESS PERIOD    1

 MAXIMUM HEAD CHANGE FOR EACH ITERATION:

    HEAD CHANGE   HEAD CHANGE   HEAD CHANGE   HEAD CHANGE   HEAD CHANGE
  LAYER,ROW,COL LAYER,ROW,COL LAYER,ROW,COL LAYER,ROW,COL LAYER,ROW,COL
 ----------------------------------------------------------------------
     -1.592       -0.4016       -0.8949E-01   -0.1897E-01   -0.6188E-02
  (  1,  8,  4) (  1,  8,  4) (  1,  8,  4) (  1,  8,  4) (  1, 12,  7)
    -0.1846E-02   -0.4770E-03
  (  1, 12,  7) (  1, 12,  7)


 NO OUTPUT CONTROL FOR STRESS PERIOD    1   TIME STEP   6
 
 SOLVING FOR HEAD 
     7 ITERATIONS FOR TIME STEP   7 IN STRESS PERIOD    1

 MAXIMUM HEAD CHANGE FOR EACH ITERATION:

    HEAD CHANGE   HEAD CHANGE   HEAD CHANGE   HEAD CHANGE   HEAD CHANGE
  LAYER,ROW,COL LAYER,ROW,COL LAYER,ROW,COL LAYER,ROW,COL LAYER,ROW,COL
 ----------------------------------------------------------------------
     -1.517       -0.3965       -0.9028E-01   -0.1931E-01   -0.4985E-02
  (  1,  8,  4) (  1,  8,  4) (  1,  8,  4) (  1,  8,  4) (  1, 11,  7)
    -0.1292E-02   -0.3261E-03
  (  1, 11,  7) (  1, 11,  7)


 NO OUTPUT CONTROL FOR STRESS PERIOD    1   TIME STEP   7
 
 SOLVING FOR HEAD 
     7 ITERATIONS FOR TIME STEP   8 IN STRESS PERIOD    1

 MAXIMUM HEAD CHANGE FOR EACH ITERATION:

    HEAD CHANGE   HEAD CHANGE   HEAD CHANGE   HEAD CHANGE   HEAD CHANGE
  LAYER,ROW,COL LAYER,ROW,COL LAYER,ROW,COL LAYER,ROW,COL LAYER,ROW,COL
 ----------------------------------------------------------------------
     -1.450       -0.3941       -0.9229E-01   -0.2003E-01   -0.5998E-02
  (  1,  8,  4) (  1,  8,  4) (  1,  8,  5) (  1,  8,  5) (  1, 11,  7)
    -0.1565E-02   -0.4397E-03
  (  1, 11,  7) (  1, 11,  7)


 NO OUTPUT CONTROL FOR STRESS PERIOD    1   TIME STEP   8
 
 SOLVING FOR HEAD 
     7 ITERATIONS FOR TIME STEP   9 IN STRESS PERIOD    1

 MAXIMUM HEAD CHANGE FOR EACH ITERATION:

    HEAD CHANGE   HEAD CHANGE   HEAD CHANGE   HEAD CHANGE   HEAD CHANGE
  LAYER,ROW,COL LAYER,ROW,COL LAYER,ROW,COL LAYER,ROW,COL LAYER,ROW,COL
 ----------------------------------------------------------------------
     -1.392       -0.3949       -0.9659E-01   -0.2134E-01   -0.4562E-02
  (  1,  8,  4) (  1,  8,  4) (  1,  8,  5) (  1,  8,  5) (  1, 11,  7)
    -0.1092E-02   -0.3077E-03
  (  1, 11,  7) (  1, 11,  7)


 NO OUTPUT CONTROL FOR STRESS PERIOD    1   TIME STEP   9
 
 SOLVING FOR HEAD 
     7 ITERATIONS FOR TIME STEP  10 IN STRESS PERIOD    1

 MAXIMUM HEAD CHANGE FOR EACH ITERATION:

    HEAD CHANGE   HEAD CHANGE   HEAD CHANGE   HEAD CHANGE   HEAD CHANGE
  LAYER,ROW,COL LAYER,ROW,COL LAYER,ROW,COL LAYER,ROW,COL LAYER,ROW,COL
 ----------------------------------------------------------------------
     -1.343       -0.3992       -0.1032       -0.2296E-01   -0.5115E-02
  (  1,  8,  4) (  1,  8,  4) (  1,  8,  5) (  1,  8,  5) (  1, 10,  7)
    -0.1160E-02   -0.3505E-03
  (  1, 10,  7) (  1, 10,  7)


 OUTPUT CONTROL FOR STRESS PERIOD    1   TIME STEP  10
    PRINT BUDGET
    PRINT HEAD FOR ALL LAYERS
    SAVE BUDGET

            WELLS   PERIOD    1   STEP  10
 WELL      1   LAYER   1   ROW     6   COL     4   RATE    -10.0000    
 WELL      2   LAYER   1   ROW     6   COL     5   RATE    -10.0000    
 WELL      3   LAYER   1   ROW     7   COL     4   RATE    -10.0000    
 WELL      4   LAYER   1   ROW     7   COL     5   RATE    -10.0000    
 WELL      5   LAYER   1   ROW     8   COL     4   RATE    -10.0000    
 WELL      6   LAYER   1   ROW     8   COL     5   RATE    -10.0000    
 WELL      7   LAYER   1   ROW     9   COL     4   RATE    -10.0000    
 WELL      8   LAYER   1   ROW     9   COL     5   RATE    -10.0000    
 WELL      9   LAYER   1   ROW    10   COL     4   RATE    -10.0000    
 WELL     10   LAYER   1   ROW    10   COL     5   RATE    -10.0000    
 UBUDSV SAVING "              ET" ON UNIT 59 AT TIME STEP 10, STRESS PERIOD    1

  HEAD DEP BOUNDS   PERIOD    1   STEP  10
 BOUNDARY      1   LAYER   1   ROW    13   COL     1   RATE   -0.245867    
 BOUNDARY      2   LAYER   1   ROW    14   COL     9   RATE    0.215278    



   STREAM LEAKAGE   PERIOD    1   STEP  10

 LAYER ROW COL. STREAM  RCH.  FLOW INTO    FLOW TO  FLOW OUT OF  OVRLND.   DIRECT    STREAM    STREAM    STREAM    STREAM  STREAMBED  STREAMBED
                SEG.NO.  NO.  STRM. RCH.   AQUIFER   STRM. RCH.  RUNOFF    PRECIP      ET       HEAD      DEPTH     WIDTH  CONDCTNC.   GRADIENT

   1    1    1     1     1    2.500E+01   7.980E-01  2.420E+01  0.00E+00  0.00E+00  0.00E+00  1.09E+03  1.17E+00  1.30E+01  5.84E-01  4.55E-01
   1    2    2     1     2    2.420E+01   2.251E+00  2.195E+01  0.00E+00  0.00E+00  0.00E+00  1.09E+03  1.15E+00  1.27E+01  8.87E-01  8.46E-01
   1    3    3     1     3    2.195E+01   2.983E+00  1.897E+01  0.00E+00  0.00E+00  0.00E+00  1.08E+03  1.11E+00  1.21E+01  7.26E-01  1.37E+00
   1    3    4     1     4    1.897E+01   2.545E+00  1.642E+01  0.00E+00  0.00E+00  0.00E+00  1.08E+03  1.06E+00  1.13E+01  6.27E-01  1.35E+00
   1    4    5     2     1    6.423E+00   2.702E+00  3.721E+00  0.00E+00  0.00E+00  0.00E+00  1.07E+03  4.64E-01  1.20E+01  7.80E-01  1.15E+00
   1    5    6     2     2    3.721E+00   1.992E+00  1.729E+00  0.00E+00  0.00E+00  0.00E+00  1.07E+03  3.19E-01  1.20E+01  6.00E-01  1.11E+00
   1    6    6     2     3    1.729E+00   1.729E+00  0.000E+00  0.00E+00  0.00E+00  0.00E+00  1.06E+03  1.60E-01  1.20E+01  6.00E-01  1.02E+00
   1    7    6     2     4    0.000E+00   0.000E+00  0.000E+00  0.00E+00  0.00E+00  0.00E+00  1.06E+03  0.00E+00  1.20E+01  6.00E-01  1.00E+00
   1    8    6     2     5    0.000E+00   0.000E+00  0.000E+00  0.00E+00  0.00E+00  0.00E+00  1.05E+03  0.00E+00  1.20E+01  6.00E-01  1.00E+00
   1    3    5     3     1    1.000E+01   2.825E+00  7.175E+00  0.00E+00  0.00E+00  0.00E+00  1.08E+03  1.91E+00  9.64E+00  7.23E-01  1.95E+00
   1    3    6     3     2    7.175E+00   1.693E+00  5.481E+00  0.00E+00  0.00E+00  0.00E+00  1.07E+03  1.73E+00  8.91E+00  6.68E-01  1.27E+00
   1    3    7     3     3    5.481E+00   5.148E-01  4.967E+00  0.00E+00  0.00E+00  0.00E+00  1.07E+03  1.55E+00  8.22E+00  5.55E-01  4.64E-01
   1    4    8     3     4    4.967E+00   7.728E-01  4.194E+00  0.00E+00  0.00E+00  0.00E+00  1.07E+03  1.36E+00  7.45E+00  6.71E-01  5.76E-01
   1    5    8     3     5    4.194E+00   1.336E+00  2.858E+00  0.00E+00  0.00E+00  0.00E+00  1.06E+03  1.16E+00  6.65E+00  4.99E-01  1.34E+00
   1    6    8     3     6    2.858E+00   5.598E-01  2.298E+00  0.00E+00  0.00E+00  0.00E+00  1.06E+03  1.04E+00  6.15E+00  1.84E-01  1.52E+00
   1    5   10     4     1    1.000E+01   9.052E-01  9.095E+00  0.00E+00  0.00E+00  0.00E+00  1.08E+03  6.21E-01  1.00E+01  2.50E-01  1.21E+00
   1    5    9     4     2    9.095E+00   1.784E+00  7.311E+00  0.00E+00  0.00E+00  0.00E+00  1.07E+03  5.67E-01  1.00E+01  5.00E-01  1.19E+00
   1    6    8     4     3    7.311E+00   1.226E+00  6.086E+00  0.00E+00  0.00E+00  0.00E+00  1.06E+03  5.02E-01  1.00E+01  3.50E-01  1.17E+00
   1    6    8     5     1    8.384E+00   5.424E-01  7.842E+00  0.00E+00  0.00E+00  0.00E+00  1.06E+03  6.24E-01  1.33E+01  5.34E-01  3.39E-01
   1    7    7     5     2    7.842E+00   2.146E+00  5.695E+00  0.00E+00  0.00E+00  0.00E+00  1.05E+03  5.86E-01  1.20E+01  5.99E-01  1.20E+00
   1    8    7     5     3    5.695E+00   1.244E+00  4.451E+00  0.00E+00  0.00E+00  0.00E+00  1.05E+03  5.30E-01  1.01E+01  3.52E-01  1.18E+00
   1    8    6     5     4    4.451E+00   7.695E-01  3.682E+00  0.00E+00  0.00E+00  0.00E+00  1.05E+03  4.90E-01  8.82E+00  2.20E-01  1.16E+00
   1    9    6     6     1    3.682E+00   1.992E+00  1.690E+00  0.00E+00  0.00E+00  0.00E+00  1.04E+03  3.20E-01  1.20E+01  6.00E-01  1.11E+00
   1   10    7     6     2    1.690E+00   1.690E+00  0.000E+00  0.00E+00  0.00E+00  0.00E+00  1.04E+03  1.60E-01  1.20E+01  6.00E-01  1.02E+00
   1   11    7     6     3    0.000E+00   0.000E+00  0.000E+00  0.00E+00  0.00E+00  0.00E+00  1.03E+03  0.00E+00  1.20E+01  6.00E-01  1.00E+00
   1   12    7     6     4    0.000E+00   0.000E+00  0.000E+00  0.00E+00  0.00E+00  0.00E+00  1.03E+03  0.00E+00  1.20E+01  6.00E-01  7.11E-01
   1   13    7     6     5    0.000E+00  -7.042E-01  7.042E-01  0.00E+00  0.00E+00  0.00E+00  1.03E+03  9.46E-02  1.20E+01  2.40E-01 -9.78E-01
   1   14    9     7     1    1.500E+02   2.960E+00  1.470E+02  0.00E+00  0.00E+00  0.00E+00  1.04E+03  2.28E+00  5.53E+01  5.59E+00  1.76E-01
   1   13    8     7     2    1.470E+02   4.170E+00  1.429E+02  0.00E+00  0.00E+00  0.00E+00  1.03E+03  2.26E+00  5.52E+01  6.14E+00  2.26E-01
   1   13    7     7     3    1.429E+02   4.032E+00  1.388E+02  0.00E+00  0.00E+00  0.00E+00  1.03E+03  2.24E+00  5.51E+01  5.57E+00  2.41E-01
   1   13    6     8     1    1.395E+02   2.611E+00  1.369E+02  0.00E+00  0.00E+00  0.00E+00  1.02E+03  2.73E+00  3.96E+01  4.04E+00  2.16E-01
   1   13    5     8     2    1.369E+02   2.806E-01  1.367E+02  0.00E+00  0.00E+00  0.00E+00  1.02E+03  2.72E+00  3.95E+01  4.02E+00  2.33E-02
   1   13    4     8     3    1.367E+02  -1.563E+00  1.382E+02  0.00E+00  0.00E+00  0.00E+00  1.01E+03  2.73E+00  3.95E+01  4.03E+00 -1.29E-01
   1   13    3     8     4    1.382E+02  -2.411E+00  1.406E+02  0.00E+00  0.00E+00  0.00E+00  1.01E+03  2.74E+00  3.97E+01  4.05E+00 -1.98E-01
   1   13    2     8     5    1.406E+02  -1.043E+00  1.417E+02  0.00E+00  0.00E+00  0.00E+00  1.00E+03  2.75E+00  3.99E+01  4.07E+00 -8.54E-02
   1   13    1     8     6    1.417E+02   3.921E-01  1.413E+02  0.00E+00  0.00E+00  0.00E+00  9.95E+02  2.76E+00  4.00E+01  2.44E+00  5.35E-02



1
              HEAD IN LAYER   1 AT END OF TIME STEP  10 IN STRESS PERIOD    1
  ---------------------------------------------------------------------------

           1       2       3       4       5       6       7       8       9      10
 ...................................................................................
   1  1092.86 1089.41 6999.00 6999.00 6999.00 6999.00 6999.00 6999.00 6999.00 6999.00
   2  1089.87 1086.67 1081.07 6999.00 6999.00 1071.86 1071.18 1070.85 6999.00 6999.00
   3  6999.00 1079.05 1076.48 1071.70 1071.54 1070.10 1068.94 1068.40 6999.00 6999.00
   4  1068.76 1069.84 1067.91 1062.93 1061.51 1060.67 1062.39 1065.67 1065.88 6999.00
   5  1064.47 1062.25 1058.00 1053.18 1053.41 1056.05 1057.56 1060.94 1065.26 1067.98
   6  1059.22 1055.48 1048.40 1040.13 1042.02 1049.40 1053.63 1057.61 1061.44 1065.50
   7  1055.43 1049.49 1040.76 1031.06 1033.80 1042.63 1049.09 1053.39 1056.03 6999.00
   8  6999.00 1042.61 1034.24 1023.98 1027.30 1036.65 1042.48 1047.94 1050.09 6999.00
   9  6999.00 1035.71 1028.43 1019.03 1022.67 1031.79 1036.40 1041.09 1043.77 6999.00
  10  6999.00 1028.60 1023.65 1016.96 1020.33 1027.97 1032.40 1036.13 1039.06 1041.56
  11  6999.00 1020.18 1019.13 1019.24 1021.87 1026.04 1028.98 1032.50 1035.52 6999.00
  12  1001.10 1008.76 1013.07 1016.80 1020.36 1024.14 1026.96 1029.95 1034.22 6999.00
  13   994.47  999.88 1006.46 1012.49 1018.28 1023.96 1028.94 1034.09 1036.12 6999.00
  14  6999.00 1003.99 1008.89 1013.58 1018.75 1023.93 1029.43 1035.09 1039.33 6999.00
  15  6999.00 6999.00 1011.90 1015.08 1019.10 1022.38 6999.00 6999.00 6999.00 6999.00
1
  VOLUMETRIC BUDGET FOR ENTIRE MODEL AT END OF TIME STEP 10 IN STRESS PERIOD   1
  ------------------------------------------------------------------------------

     CUMULATIVE VOLUMES      L**3       RATES FOR THIS TIME STEP      L**3/T
     ------------------                 ------------------------

           IN:                                      IN:
           ---                                      ---
             STORAGE =  1840119040.0000               STORAGE =          77.3983
       CONSTANT HEAD =           0.0000         CONSTANT HEAD =           0.0000
               WELLS =           0.0000                 WELLS =           0.0000
                  ET =           0.0000                    ET =           0.0000
     HEAD DEP BOUNDS =     4652316.0000       HEAD DEP BOUNDS =           0.2153
            RECHARGE =    38755624.0000              RECHARGE =           1.7937
      STREAM LEAKAGE =  1024308350.0000        STREAM LEAKAGE =          49.4458

            TOTAL IN =  2907835390.0000              TOTAL IN =         128.8531

          OUT:                                     OUT:
          ----                                     ----
             STORAGE =     1748962.5000               STORAGE =           0.0000
       CONSTANT HEAD =           0.0000         CONSTANT HEAD =           0.0000
               WELLS =  2160592380.0000                 WELLS =         100.0000
                  ET =   577568640.0000                    ET =          22.8857
     HEAD DEP BOUNDS =     5334255.0000       HEAD DEP BOUNDS =           0.2459
            RECHARGE =           0.0000              RECHARGE =           0.0000
      STREAM LEAKAGE =   162862240.0000        STREAM LEAKAGE =           5.7214

           TOTAL OUT =  2908106500.0000             TOTAL OUT =         128.8530

            IN - OUT =     -271149.5000              IN - OUT =       1.0577E-04

 PERCENT DISCREPANCY =          -0.01     PERCENT DISCREPANCY =           0.00






          TIME SUMMARY AT END OF TIME STEP  10 IN STRESS PERIOD    1
                    SECONDS     MINUTES      HOURS       DAYS        YEARS
                    -----------------------------------------------------------
   TIME STEP LENGTH 3.19660E+06  53277.      887.95      36.998     0.10129    
 STRESS PERIOD TIME 2.16059E+07 3.60099E+05  6001.6      250.07     0.68465    
         TOTAL TIME 2.16059E+07 3.60099E+05  6001.6      250.07     0.68465    
1
 
 SOLVING FOR HEAD 
     7 ITERATIONS FOR TIME STEP  11 IN STRESS PERIOD    1

 MAXIMUM HEAD CHANGE FOR EACH ITERATION:

    HEAD CHANGE   HEAD CHANGE   HEAD CHANGE   HEAD CHANGE   HEAD CHANGE
  LAYER,ROW,COL LAYER,ROW,COL LAYER,ROW,COL LAYER,ROW,COL LAYER,ROW,COL
 ----------------------------------------------------------------------
     -1.332       -0.4084       -0.1111       -0.2515E-01   -0.6435E-02
  (  1,  8,  3) (  1,  8,  5) (  1,  8,  5) (  1,  8,  5) (  1, 10,  7)
    -0.1533E-02   -0.4451E-03
  (  1, 10,  7) (  1, 10,  7)


 NO OUTPUT CONTROL FOR STRESS PERIOD    1   TIME STEP  11
 
 SOLVING FOR HEAD 
     7 ITERATIONS FOR TIME STEP  12 IN STRESS PERIOD    1

 MAXIMUM HEAD CHANGE FOR EACH ITERATION:

    HEAD CHANGE   HEAD CHANGE   HEAD CHANGE   HEAD CHANGE   HEAD CHANGE
  LAYER,ROW,COL LAYER,ROW,COL LAYER,ROW,COL LAYER,ROW,COL LAYER,ROW,COL
 ----------------------------------------------------------------------
     -1.351       -0.4263       -0.1201       -0.2765E-01   -0.6534E-02
  (  1,  8,  3) (  1,  8,  5) (  1,  8,  5) (  1,  8,  5) (  1, 10,  7)
    -0.1510E-02   -0.4333E-03
  (  1, 10,  7) (  1, 10,  7)


 NO OUTPUT CONTROL FOR STRESS PERIOD    1   TIME STEP  12
 
 SOLVING FOR HEAD 
     7 ITERATIONS FOR TIME STEP  13 IN STRESS PERIOD    1

 MAXIMUM HEAD CHANGE FOR EACH ITERATION:

    HEAD CHANGE   HEAD CHANGE   HEAD CHANGE   HEAD CHANGE   HEAD CHANGE
  LAYER,ROW,COL LAYER,ROW,COL LAYER,ROW,COL LAYER,ROW,COL LAYER,ROW,COL
 ----------------------------------------------------------------------
     -1.365       -0.4464       -0.1306       -0.3071E-01   -0.7492E-02
  (  1,  8,  3) (  1,  8,  5) (  1,  8,  5) (  1,  8,  5) (  1, 10,  7)
    -0.1771E-02   -0.5145E-03
  (  1, 10,  7) (  1, 10,  7)


 OUTPUT CONTROL FOR STRESS PERIOD    1   TIME STEP  13
    PRINT BUDGET
    PRINT HEAD FOR ALL LAYERS
    SAVE BUDGET

            WELLS   PERIOD    1   STEP  13
 WELL      1   LAYER   1   ROW     6   COL     4   RATE    -10.0000    
 WELL      2   LAYER   1   ROW     6   COL     5   RATE    -10.0000    
 WELL      3   LAYER   1   ROW     7   COL     4   RATE    -10.0000    
 WELL      4   LAYER   1   ROW     7   COL     5   RATE    -10.0000    
 WELL      5   LAYER   1   ROW     8   COL     4   RATE    -10.0000    
 WELL      6   LAYER   1   ROW     8   COL     5   RATE    -10.0000    
 WELL      7   LAYER   1   ROW     9   COL     4   RATE    -10.0000    
 WELL      8   LAYER   1   ROW     9   COL     5   RATE    -10.0000    
 WELL      9   LAYER   1   ROW    10   COL     4   RATE    -10.0000    
 WELL     10   LAYER   1   ROW    10   COL     5   RATE    -10.0000    
 UBUDSV SAVING "              ET" ON UNIT 59 AT TIME STEP 13, STRESS PERIOD    1

  HEAD DEP BOUNDS   PERIOD    1   STEP  13
 BOUNDARY      1   LAYER   1   ROW    13   COL     1   RATE   -0.244627    
 BOUNDARY      2   LAYER   1   ROW    14   COL     9   RATE    0.215325    



   STREAM LEAKAGE   PERIOD    1   STEP  13

 LAYER ROW COL. STREAM  RCH.  FLOW INTO    FLOW TO  FLOW OUT OF  OVRLND.   DIRECT    STREAM    STREAM    STREAM    STREAM  STREAMBED  STREAMBED
                SEG.NO.  NO.  STRM. RCH.   AQUIFER   STRM. RCH.  RUNOFF    PRECIP      ET       HEAD      DEPTH     WIDTH  CONDCTNC.   GRADIENT

   1    1    1     1     1    2.500E+01   8.050E-01  2.420E+01  0.00E+00  0.00E+00  0.00E+00  1.09E+03  1.17E+00  1.30E+01  5.84E-01  4.59E-01
   1    2    2     1     2    2.420E+01   2.419E+00  2.178E+01  0.00E+00  0.00E+00  0.00E+00  1.09E+03  1.15E+00  1.27E+01  8.86E-01  9.10E-01
   1    3    3     1     3    2.178E+01   2.972E+00  1.880E+01  0.00E+00  0.00E+00  0.00E+00  1.08E+03  1.11E+00  1.21E+01  7.24E-01  1.37E+00
   1    3    4     1     4    1.880E+01   2.532E+00  1.627E+01  0.00E+00  0.00E+00  0.00E+00  1.08E+03  1.06E+00  1.12E+01  6.24E-01  1.35E+00
   1    4    5     2     1    6.272E+00   2.695E+00  3.577E+00  0.00E+00  0.00E+00  0.00E+00  1.07E+03  4.56E-01  1.20E+01  7.80E-01  1.15E+00
   1    5    6     2     2    3.577E+00   1.986E+00  1.591E+00  0.00E+00  0.00E+00  0.00E+00  1.07E+03  3.09E-01  1.20E+01  6.00E-01  1.10E+00
   1    6    6     2     3    1.591E+00   1.591E+00  0.000E+00  0.00E+00  0.00E+00  0.00E+00  1.06E+03  1.53E-01  1.20E+01  6.00E-01  1.02E+00
   1    7    6     2     4    0.000E+00   0.000E+00  0.000E+00  0.00E+00  0.00E+00  0.00E+00  1.06E+03  0.00E+00  1.20E+01  6.00E-01  1.00E+00
   1    8    6     2     5    0.000E+00   0.000E+00  0.000E+00  0.00E+00  0.00E+00  0.00E+00  1.05E+03  0.00E+00  1.20E+01  6.00E-01  1.00E+00
   1    3    5     3     1    1.000E+01   2.825E+00  7.175E+00  0.00E+00  0.00E+00  0.00E+00  1.08E+03  1.91E+00  9.64E+00  7.23E-01  1.95E+00
   1    3    6     3     2    7.175E+00   2.061E+00  5.114E+00  0.00E+00  0.00E+00  0.00E+00  1.07E+03  1.73E+00  8.91E+00  6.68E-01  1.54E+00
   1    3    7     3     3    5.114E+00   6.684E-01  4.446E+00  0.00E+00  0.00E+00  0.00E+00  1.07E+03  1.55E+00  8.22E+00  5.55E-01  6.02E-01
   1    4    8     3     4    4.446E+00   9.983E-01  3.447E+00  0.00E+00  0.00E+00  0.00E+00  1.07E+03  1.36E+00  7.45E+00  6.71E-01  7.44E-01
   1    5    8     3     5    3.447E+00   1.579E+00  1.868E+00  0.00E+00  0.00E+00  0.00E+00  1.06E+03  1.16E+00  6.65E+00  4.99E-01  1.58E+00
   1    6    8     3     6    1.868E+00   5.598E-01  1.309E+00  0.00E+00  0.00E+00  0.00E+00  1.06E+03  1.04E+00  6.15E+00  1.84E-01  1.52E+00
   1    5   10     4     1    1.000E+01   9.052E-01  9.095E+00  0.00E+00  0.00E+00  0.00E+00  1.08E+03  6.21E-01  1.00E+01  2.50E-01  1.21E+00
   1    5    9     4     2    9.095E+00   1.784E+00  7.311E+00  0.00E+00  0.00E+00  0.00E+00  1.07E+03  5.67E-01  1.00E+01  5.00E-01  1.19E+00
   1    6    8     4     3    7.311E+00   1.226E+00  6.086E+00  0.00E+00  0.00E+00  0.00E+00  1.06E+03  5.02E-01  1.00E+01  3.50E-01  1.17E+00
   1    6    8     5     1    7.394E+00   1.247E+00  6.147E+00  0.00E+00  0.00E+00  0.00E+00  1.06E+03  5.86E-01  1.20E+01  4.79E-01  8.68E-01
   1    7    7     5     2    6.147E+00   1.815E+00  4.333E+00  0.00E+00  0.00E+00  0.00E+00  1.05E+03  5.36E-01  1.03E+01  5.13E-01  1.18E+00
   1    8    7     5     3    4.333E+00   1.034E+00  3.299E+00  0.00E+00  0.00E+00  0.00E+00  1.05E+03  4.79E-01  8.49E+00  2.97E-01  1.16E+00
   1    8    6     5     4    3.299E+00   6.299E-01  2.669E+00  0.00E+00  0.00E+00  0.00E+00  1.05E+03  4.40E-01  7.32E+00  1.83E-01  1.15E+00
   1    9    6     6     1    2.669E+00   1.946E+00  7.234E-01  0.00E+00  0.00E+00  0.00E+00  1.04E+03  2.43E-01  1.20E+01  6.00E-01  1.08E+00
   1   10    7     6     2    7.234E-01   7.234E-01  0.000E+00  0.00E+00  0.00E+00  0.00E+00  1.04E+03  3.28E-02  1.20E+01  6.00E-01  1.01E+00
   1   11    7     6     3    0.000E+00   0.000E+00  0.000E+00  0.00E+00  0.00E+00  0.00E+00  1.03E+03  0.00E+00  1.20E+01  6.00E-01  1.00E+00
   1   12    7     6     4    0.000E+00   0.000E+00  0.000E+00  0.00E+00  0.00E+00  0.00E+00  1.03E+03  0.00E+00  1.20E+01  6.00E-01  1.00E+00
   1   13    7     6     5    0.000E+00  -6.786E-01  6.786E-01  0.00E+00  0.00E+00  0.00E+00  1.03E+03  9.26E-02  1.20E+01  2.40E-01 -9.43E-01
   1   14    9     7     1    1.500E+02   2.966E+00  1.470E+02  0.00E+00  0.00E+00  0.00E+00  1.04E+03  2.28E+00  5.53E+01  5.59E+00  1.77E-01
   1   13    8     7     2    1.470E+02   4.284E+00  1.428E+02  0.00E+00  0.00E+00  0.00E+00  1.03E+03  2.26E+00  5.52E+01  6.14E+00  2.33E-01
   1   13    7     7     3    1.428E+02   4.623E+00  1.381E+02  0.00E+00  0.00E+00  0.00E+00  1.03E+03  2.24E+00  5.51E+01  5.57E+00  2.77E-01
   1   13    6     8     1    1.388E+02   3.361E+00  1.354E+02  0.00E+00  0.00E+00  0.00E+00  1.02E+03  2.72E+00  3.95E+01  4.02E+00  2.78E-01
   1   13    5     8     2    1.354E+02   1.187E+00  1.343E+02  0.00E+00  0.00E+00  0.00E+00  1.02E+03  2.71E+00  3.92E+01  4.00E+00  9.89E-02
   1   13    4     8     3    1.343E+02  -7.360E-01  1.350E+02  0.00E+00  0.00E+00  0.00E+00  1.01E+03  2.70E+00  3.92E+01  4.00E+00 -6.14E-02
   1   13    3     8     4    1.350E+02  -1.909E+00  1.369E+02  0.00E+00  0.00E+00  0.00E+00  1.01E+03  2.71E+00  3.94E+01  4.01E+00 -1.59E-01
   1   13    2     8     5    1.369E+02  -9.427E-01  1.378E+02  0.00E+00  0.00E+00  0.00E+00  1.00E+03  2.73E+00  3.95E+01  4.03E+00 -7.80E-02
   1   13    1     8     6    1.378E+02   3.988E-01  1.374E+02  0.00E+00  0.00E+00  0.00E+00  9.95E+02  2.73E+00  3.95E+01  2.42E+00  5.50E-02



1
              HEAD IN LAYER   1 AT END OF TIME STEP  13 IN STRESS PERIOD    1
  ---------------------------------------------------------------------------

           1       2       3       4       5       6       7       8       9      10
 ...................................................................................
   1  1092.84 1089.35 6999.00 6999.00 6999.00 6999.00 6999.00 6999.00 6999.00 6999.00
   2  1089.83 1086.48 1080.36 6999.00 6999.00 1071.57 1070.99 1070.72 6999.00 6999.00
   3  6999.00 1078.34 1075.13 1069.86 1070.19 1069.55 1068.67 1068.24 6999.00 6999.00
   4  1068.26 1068.68 1065.86 1060.30 1058.87 1058.36 1060.86 1065.33 1065.60 6999.00
   5  1063.72 1060.37 1054.91 1049.66 1050.05 1053.16 1055.33 1059.66 1064.59 1067.65
   6  1058.19 1052.88 1044.27 1035.69 1037.86 1045.85 1050.93 1055.98 1060.64 1065.27
   7  1054.20 1046.30 1035.81 1025.90 1029.02 1038.50 1045.74 1051.09 1055.14 6999.00
   8  6999.00 1038.94 1028.86 1018.47 1022.23 1032.15 1038.58 1045.61 1049.40 6999.00
   9  6999.00 1032.26 1023.35 1013.83 1017.86 1027.48 1032.62 1038.88 1043.16 6999.00
  10  6999.00 1025.92 1019.58 1012.66 1016.28 1024.31 1029.05 1034.19 1038.50 1041.46
  11  6999.00 1018.59 1016.65 1016.25 1018.99 1023.42 1026.73 1031.13 1035.08 6999.00
  12  1000.95 1008.13 1011.99 1015.27 1018.87 1022.78 1025.80 1029.45 1034.04 6999.00
  13   994.44  999.83 1006.32 1012.26 1018.03 1023.76 1028.83 1034.07 1036.10 6999.00
  14  6999.00 1003.97 1008.80 1013.44 1018.61 1023.82 1029.36 1035.07 1039.33 6999.00
  15  6999.00 6999.00 1011.89 1015.05 1019.07 1022.35 6999.00 6999.00 6999.00 6999.00
1
  VOLUMETRIC BUDGET FOR ENTIRE MODEL AT END OF TIME STEP 13 IN STRESS PERIOD   1
  ------------------------------------------------------------------------------

     CUMULATIVE VOLUMES      L**3       RATES FOR THIS TIME STEP      L**3/T
     ------------------                 ------------------------

           IN:                                      IN:
           ---                                      ---
             STORAGE =  2693260290.0000               STORAGE =          71.4074
       CONSTANT HEAD =           0.0000         CONSTANT HEAD =           0.0000
               WELLS =           0.0000                 WELLS =           0.0000
                  ET =           0.0000                    ET =           0.0000
     HEAD DEP BOUNDS =     7158248.0000       HEAD DEP BOUNDS =           0.2153
            RECHARGE =    59632788.0000              RECHARGE =           1.7937
      STREAM LEAKAGE =  1618500220.0000        STREAM LEAKAGE =          51.8200

            TOTAL IN =  4378551300.0000              TOTAL IN =         125.2365

          OUT:                                     OUT:
          ----                                     ----
             STORAGE =     1748962.5000               STORAGE =           0.0000
       CONSTANT HEAD =           0.0000         CONSTANT HEAD =           0.0000
               WELLS =  3324476160.0000                 WELLS =         100.0000
                  ET =   826436800.0000                    ET =          20.7282
     HEAD DEP BOUNDS =     8186231.5000       HEAD DEP BOUNDS =           0.2446
            RECHARGE =           0.0000              RECHARGE =           0.0000
      STREAM LEAKAGE =   218043616.0000        STREAM LEAKAGE =           4.2658

           TOTAL OUT =  4378891780.0000             TOTAL OUT =         125.2387

            IN - OUT =     -340222.0000              IN - OUT =      -2.1437E-03

 PERCENT DISCREPANCY =          -0.01     PERCENT DISCREPANCY =           0.00






          TIME SUMMARY AT END OF TIME STEP  13 IN STRESS PERIOD    1
                    SECONDS     MINUTES      HOURS       DAYS        YEARS
                    -----------------------------------------------------------
   TIME STEP LENGTH 4.25468E+06  70911.      1181.9      49.244     0.13482    
 STRESS PERIOD TIME 3.32448E+07 5.54079E+05  9234.7      384.78      1.0535    
         TOTAL TIME 3.32448E+07 5.54079E+05  9234.7      384.78      1.0535    
1
 
 SOLVING FOR HEAD 
     7 ITERATIONS FOR TIME STEP  14 IN STRESS PERIOD    1

 MAXIMUM HEAD CHANGE FOR EACH ITERATION:

    HEAD CHANGE   HEAD CHANGE   HEAD CHANGE   HEAD CHANGE   HEAD CHANGE
  LAYER,ROW,COL LAYER,ROW,COL LAYER,ROW,COL LAYER,ROW,COL LAYER,ROW,COL
 ----------------------------------------------------------------------
     -1.377       -0.4691       -0.1439       -0.3485E-01   -0.9737E-02
  (  1,  8,  3) (  1,  8,  5) (  1,  8,  5) (  1, 10,  7) (  1, 10,  7)
    -0.2339E-02   -0.7059E-03
  (  1, 10,  7) (  1, 10,  7)


 NO OUTPUT CONTROL FOR STRESS PERIOD    1   TIME STEP  14
 
 SOLVING FOR HEAD 
     7 ITERATIONS FOR TIME STEP  15 IN STRESS PERIOD    1

 MAXIMUM HEAD CHANGE FOR EACH ITERATION:

    HEAD CHANGE   HEAD CHANGE   HEAD CHANGE   HEAD CHANGE   HEAD CHANGE
  LAYER,ROW,COL LAYER,ROW,COL LAYER,ROW,COL LAYER,ROW,COL LAYER,ROW,COL
 ----------------------------------------------------------------------
     -1.389       -0.4942       -0.1559       -0.3832E-01   -0.8439E-02
  (  1,  8,  3) (  1,  8,  5) (  1,  8,  5) (  1,  8,  5) (  1,  8,  5)
    -0.1552E-02   -0.6165E-03
  (  1, 10,  7) (  1,  7,  5)


 OUTPUT CONTROL FOR STRESS PERIOD    1   TIME STEP  15
    PRINT BUDGET
    PRINT HEAD FOR ALL LAYERS
    SAVE BUDGET

            WELLS   PERIOD    1   STEP  15
 WELL      1   LAYER   1   ROW     6   COL     4   RATE    -10.0000    
 WELL      2   LAYER   1   ROW     6   COL     5   RATE    -10.0000    
 WELL      3   LAYER   1   ROW     7   COL     4   RATE    -10.0000    
 WELL      4   LAYER   1   ROW     7   COL     5   RATE    -10.0000    
 WELL      5   LAYER   1   ROW     8   COL     4   RATE    -10.0000    
 WELL      6   LAYER   1   ROW     8   COL     5   RATE    -10.0000    
 WELL      7   LAYER   1   ROW     9   COL     4   RATE    -10.0000    
 WELL      8   LAYER   1   ROW     9   COL     5   RATE    -10.0000    
 WELL      9   LAYER   1   ROW    10   COL     4   RATE    -10.0000    
 WELL     10   LAYER   1   ROW    10   COL     5   RATE    -10.0000    
 UBUDSV SAVING "              ET" ON UNIT 59 AT TIME STEP 15, STRESS PERIOD    1

  HEAD DEP BOUNDS   PERIOD    1   STEP  15
 BOUNDARY      1   LAYER   1   ROW    13   COL     1   RATE   -0.243602    
 BOUNDARY      2   LAYER   1   ROW    14   COL     9   RATE    0.215382    



   STREAM LEAKAGE   PERIOD    1   STEP  15

 LAYER ROW COL. STREAM  RCH.  FLOW INTO    FLOW TO  FLOW OUT OF  OVRLND.   DIRECT    STREAM    STREAM    STREAM    STREAM  STREAMBED  STREAMBED
                SEG.NO.  NO.  STRM. RCH.   AQUIFER   STRM. RCH.  RUNOFF    PRECIP      ET       HEAD      DEPTH     WIDTH  CONDCTNC.   GRADIENT

   1    1    1     1     1    2.500E+01   8.164E-01  2.418E+01  0.00E+00  0.00E+00  0.00E+00  1.09E+03  1.17E+00  1.30E+01  5.84E-01  4.66E-01
   1    2    2     1     2    2.418E+01   2.619E+00  2.156E+01  0.00E+00  0.00E+00  0.00E+00  1.09E+03  1.15E+00  1.26E+01  8.84E-01  9.88E-01
   1    3    3     1     3    2.156E+01   2.958E+00  1.861E+01  0.00E+00  0.00E+00  0.00E+00  1.08E+03  1.10E+00  1.20E+01  7.21E-01  1.37E+00
   1    3    4     1     4    1.861E+01   2.517E+00  1.609E+01  0.00E+00  0.00E+00  0.00E+00  1.08E+03  1.06E+00  1.12E+01  6.20E-01  1.35E+00
   1    4    5     2     1    6.090E+00   2.688E+00  3.403E+00  0.00E+00  0.00E+00  0.00E+00  1.07E+03  4.46E-01  1.20E+01  7.80E-01  1.15E+00
   1    5    6     2     2    3.403E+00   1.978E+00  1.424E+00  0.00E+00  0.00E+00  0.00E+00  1.07E+03  2.97E-01  1.20E+01  6.00E-01  1.10E+00
   1    6    6     2     3    1.424E+00   1.424E+00  0.000E+00  0.00E+00  0.00E+00  0.00E+00  1.06E+03  1.43E-01  1.20E+01  6.00E-01  1.02E+00
   1    7    6     2     4    0.000E+00   0.000E+00  0.000E+00  0.00E+00  0.00E+00  0.00E+00  1.06E+03  0.00E+00  1.20E+01  6.00E-01  1.00E+00
   1    8    6     2     5    0.000E+00   0.000E+00  0.000E+00  0.00E+00  0.00E+00  0.00E+00  1.05E+03  0.00E+00  1.20E+01  6.00E-01  1.00E+00
   1    3    5     3     1    1.000E+01   2.825E+00  7.175E+00  0.00E+00  0.00E+00  0.00E+00  1.08E+03  1.91E+00  9.64E+00  7.23E-01  1.95E+00
   1    3    6     3     2    7.175E+00   2.421E+00  4.753E+00  0.00E+00  0.00E+00  0.00E+00  1.07E+03  1.73E+00  8.91E+00  6.68E-01  1.81E+00
   1    3    7     3     3    4.753E+00   8.186E-01  3.935E+00  0.00E+00  0.00E+00  0.00E+00  1.07E+03  1.55E+00  8.22E+00  5.55E-01  7.38E-01
   1    4    8     3     4    3.935E+00   1.239E+00  2.696E+00  0.00E+00  0.00E+00  0.00E+00  1.07E+03  1.36E+00  7.45E+00  6.71E-01  9.23E-01
   1    5    8     3     5    2.696E+00   1.579E+00  1.117E+00  0.00E+00  0.00E+00  0.00E+00  1.06E+03  1.16E+00  6.65E+00  4.99E-01  1.58E+00
   1    6    8     3     6    1.117E+00   5.598E-01  5.571E-01  0.00E+00  0.00E+00  0.00E+00  1.06E+03  1.04E+00  6.15E+00  1.84E-01  1.52E+00
   1    5   10     4     1    1.000E+01   9.052E-01  9.095E+00  0.00E+00  0.00E+00  0.00E+00  1.08E+03  6.21E-01  1.00E+01  2.50E-01  1.21E+00
   1    5    9     4     2    9.095E+00   1.784E+00  7.311E+00  0.00E+00  0.00E+00  0.00E+00  1.07E+03  5.67E-01  1.00E+01  5.00E-01  1.19E+00
   1    6    8     4     3    7.311E+00   1.226E+00  6.086E+00  0.00E+00  0.00E+00  0.00E+00  1.06E+03  5.02E-01  1.00E+01  3.50E-01  1.17E+00
   1    6    8     5     1    6.643E+00   1.562E+00  5.080E+00  0.00E+00  0.00E+00  0.00E+00  1.06E+03  5.57E-01  1.10E+01  4.39E-01  1.19E+00
   1    7    7     5     2    5.080E+00   1.592E+00  3.489E+00  0.00E+00  0.00E+00  0.00E+00  1.05E+03  4.99E-01  9.10E+00  4.55E-01  1.17E+00
   1    8    7     5     3    3.489E+00   8.927E-01  2.596E+00  0.00E+00  0.00E+00  0.00E+00  1.05E+03  4.43E-01  7.41E+00  2.59E-01  1.15E+00
   1    8    6     5     4    2.596E+00   5.369E-01  2.059E+00  0.00E+00  0.00E+00  0.00E+00  1.05E+03  4.03E-01  6.31E+00  1.58E-01  1.13E+00
   1    9    6     6     1    2.059E+00   1.913E+00  1.464E-01  0.00E+00  0.00E+00  0.00E+00  1.04E+03  1.88E-01  1.20E+01  6.00E-01  1.06E+00
   1   10    7     6     2    1.464E-01   1.464E-01  0.000E+00  0.00E+00  0.00E+00  0.00E+00  1.04E+03  1.26E-02  1.20E+01  6.00E-01  1.00E+00
   1   11    7     6     3    0.000E+00   0.000E+00  0.000E+00  0.00E+00  0.00E+00  0.00E+00  1.03E+03  0.00E+00  1.20E+01  6.00E-01  1.00E+00
   1   12    7     6     4    0.000E+00   0.000E+00  0.000E+00  0.00E+00  0.00E+00  0.00E+00  1.03E+03  0.00E+00  1.20E+01  6.00E-01  1.00E+00
   1   13    7     6     5    0.000E+00  -6.594E-01  6.594E-01  0.00E+00  0.00E+00  0.00E+00  1.03E+03  9.10E-02  1.20E+01  2.40E-01 -9.16E-01
   1   14    9     7     1    1.500E+02   2.974E+00  1.470E+02  0.00E+00  0.00E+00  0.00E+00  1.04E+03  2.28E+00  5.53E+01  5.59E+00  1.77E-01
   1   13    8     7     2    1.470E+02   4.379E+00  1.426E+02  0.00E+00  0.00E+00  0.00E+00  1.03E+03  2.26E+00  5.52E+01  6.14E+00  2.38E-01
   1   13    7     7     3    1.426E+02   5.068E+00  1.376E+02  0.00E+00  0.00E+00  0.00E+00  1.03E+03  2.24E+00  5.51E+01  5.57E+00  3.03E-01
   1   13    6     8     1    1.382E+02   3.913E+00  1.343E+02  0.00E+00  0.00E+00  0.00E+00  1.02E+03  2.72E+00  3.94E+01  4.02E+00  3.25E-01
   1   13    5     8     2    1.343E+02   1.838E+00  1.325E+02  0.00E+00  0.00E+00  0.00E+00  1.02E+03  2.70E+00  3.91E+01  3.98E+00  1.54E-01
   1   13    4     8     3    1.325E+02  -1.380E-01  1.326E+02  0.00E+00  0.00E+00  0.00E+00  1.01E+03  2.69E+00  3.90E+01  3.97E+00 -1.16E-02
   1   13    3     8     4    1.326E+02  -1.519E+00  1.341E+02  0.00E+00  0.00E+00  0.00E+00  1.01E+03  2.70E+00  3.91E+01  3.98E+00 -1.27E-01
   1   13    2     8     5    1.341E+02  -8.521E-01  1.350E+02  0.00E+00  0.00E+00  0.00E+00  1.00E+03  2.70E+00  3.92E+01  4.00E+00 -7.11E-02
   1   13    1     8     6    1.350E+02   4.093E-01  1.346E+02  0.00E+00  0.00E+00  0.00E+00  9.95E+02  2.71E+00  3.92E+01  2.40E+00  5.69E-02



1
              HEAD IN LAYER   1 AT END OF TIME STEP  15 IN STRESS PERIOD    1
  ---------------------------------------------------------------------------

           1       2       3       4       5       6       7       8       9      10
 ...................................................................................
   1  1092.82 1089.26 6999.00 6999.00 6999.00 6999.00 6999.00 6999.00 6999.00 6999.00
   2  1089.75 1086.24 1079.58 6999.00 6999.00 1071.27 1070.79 1070.58 6999.00 6999.00
   3  6999.00 1077.55 1073.81 1068.19 1068.72 1069.01 1068.40 1068.04 6999.00 6999.00
   4  1067.61 1067.48 1064.08 1058.16 1056.70 1056.37 1059.47 1064.97 1065.19 6999.00
   5  1062.81 1058.63 1052.49 1047.02 1047.47 1050.81 1053.36 1058.24 1063.71 1067.16
   6  1056.99 1050.61 1041.24 1032.54 1034.83 1043.09 1048.63 1054.32 1059.67 1064.91
   7  1052.80 1043.59 1032.31 1022.37 1025.66 1035.42 1043.01 1048.98 1054.07 6999.00
   8  6999.00 1035.77 1025.08 1014.77 1018.72 1028.87 1035.53 1043.43 1048.49 6999.00
   9  6999.00 1029.22 1019.76 1010.32 1014.54 1024.35 1029.66 1036.79 1042.36 6999.00
  10  6999.00 1023.49 1016.65 1009.73 1013.46 1021.61 1026.36 1032.35 1037.79 1041.27
  11  6999.00 1017.07 1014.80 1014.18 1016.96 1021.50 1025.01 1029.89 1034.52 6999.00
  12  1000.77 1007.54 1011.15 1014.17 1017.80 1021.78 1024.93 1029.02 1033.82 6999.00
  13   994.41  999.79 1006.20 1012.10 1017.86 1023.62 1028.75 1034.05 1036.08 6999.00
  14  6999.00 1003.93 1008.71 1013.32 1018.48 1023.71 1029.29 1035.06 1039.33 6999.00
  15  6999.00 6999.00 1011.86 1015.02 1019.03 1022.31 6999.00 6999.00 6999.00 6999.00
1
  VOLUMETRIC BUDGET FOR ENTIRE MODEL AT END OF TIME STEP 15 IN STRESS PERIOD   1
  ------------------------------------------------------------------------------

     CUMULATIVE VOLUMES      L**3       RATES FOR THIS TIME STEP      L**3/T
     ------------------                 ------------------------

           IN:                                      IN:
           ---                                      ---
             STORAGE =  3366407940.0000               STORAGE =          67.5687
       CONSTANT HEAD =           0.0000         CONSTANT HEAD =           0.0000
               WELLS =           0.0000                 WELLS =           0.0000
                  ET =           0.0000                    ET =           0.0000
     HEAD DEP BOUNDS =     9274947.0000       HEAD DEP BOUNDS =           0.2154
            RECHARGE =    77262328.0000              RECHARGE =           1.7937
      STREAM LEAKAGE =  2140929790.0000        STREAM LEAKAGE =          53.5820

            TOTAL IN =  5593874940.0000              TOTAL IN =         123.1598

          OUT:                                     OUT:
          ----                                     ----
             STORAGE =     1748962.5000               STORAGE =           0.0000
       CONSTANT HEAD =           0.0000         CONSTANT HEAD =           0.0000
               WELLS =  4307307520.0000                 WELLS =         100.0000
                  ET =  1022848260.0000                    ET =          19.7575
     HEAD DEP BOUNDS =    10582912.0000       HEAD DEP BOUNDS =           0.2436
            RECHARGE =           0.0000              RECHARGE =           0.0000
      STREAM LEAKAGE =   251791792.0000        STREAM LEAKAGE =           3.1684

           TOTAL OUT =  5594279420.0000             TOTAL OUT =         123.1695

            IN - OUT =     -404439.5000              IN - OUT =      -9.6935E-03

 PERCENT DISCREPANCY =          -0.01     PERCENT DISCREPANCY =          -0.01






          TIME SUMMARY AT END OF TIME STEP  15 IN STRESS PERIOD    1
                    SECONDS     MINUTES      HOURS       DAYS        YEARS
                    -----------------------------------------------------------
   TIME STEP LENGTH 5.14816E+06  85803.      1430.0      59.585     0.16314    
 STRESS PERIOD TIME 4.30731E+07 7.17885E+05  11965.      498.53      1.3649    
         TOTAL TIME 4.30731E+07 7.17885E+05  11965.      498.53      1.3649    
1
 
 SOLVING FOR HEAD 
     7 ITERATIONS FOR TIME STEP  16 IN STRESS PERIOD    1

 MAXIMUM HEAD CHANGE FOR EACH ITERATION:

    HEAD CHANGE   HEAD CHANGE   HEAD CHANGE   HEAD CHANGE   HEAD CHANGE
  LAYER,ROW,COL LAYER,ROW,COL LAYER,ROW,COL LAYER,ROW,COL LAYER,ROW,COL
 ----------------------------------------------------------------------
     -1.401       -0.5198       -0.1705       -0.4300E-01   -0.9471E-02
  (  1,  8,  3) (  1,  8,  5) (  1,  8,  5) (  1,  7,  5) (  1,  8,  5)
    -0.1604E-02   -0.7198E-03
  (  1,  7,  5) (  1,  7,  5)


 NO OUTPUT CONTROL FOR STRESS PERIOD    1   TIME STEP  16
 
 SOLVING FOR HEAD 
     7 ITERATIONS FOR TIME STEP  17 IN STRESS PERIOD    1

 MAXIMUM HEAD CHANGE FOR EACH ITERATION:

    HEAD CHANGE   HEAD CHANGE   HEAD CHANGE   HEAD CHANGE   HEAD CHANGE
  LAYER,ROW,COL LAYER,ROW,COL LAYER,ROW,COL LAYER,ROW,COL LAYER,ROW,COL
 ----------------------------------------------------------------------
     -1.461       -0.5488       -0.1900       -0.4943E-01   -0.1078E-01
  (  1,  8,  2) (  1,  8,  5) (  1,  7,  5) (  1,  7,  5) (  1,  7,  5)
    -0.2388E-02   -0.8719E-03
  (  1,  6,  8) (  1,  7,  5)


 NO OUTPUT CONTROL FOR STRESS PERIOD    1   TIME STEP  17
 
 SOLVING FOR HEAD 
     8 ITERATIONS FOR TIME STEP  18 IN STRESS PERIOD    1

 MAXIMUM HEAD CHANGE FOR EACH ITERATION:

    HEAD CHANGE   HEAD CHANGE   HEAD CHANGE   HEAD CHANGE   HEAD CHANGE
  LAYER,ROW,COL LAYER,ROW,COL LAYER,ROW,COL LAYER,ROW,COL LAYER,ROW,COL
 ----------------------------------------------------------------------
     -1.538       -0.5838       -0.2093       -0.5723E-01   -0.1359E-01
  (  1,  8,  2) (  1,  7,  5) (  1,  7,  5) (  1,  7,  5) (  1,  6,  8)
    -0.3480E-02   -0.1089E-02   -0.3903E-03
  (  1,  6,  8) (  1,  6,  6) (  1,  6,  6)


 NO OUTPUT CONTROL FOR STRESS PERIOD    1   TIME STEP  18
 
 SOLVING FOR HEAD 
     8 ITERATIONS FOR TIME STEP  19 IN STRESS PERIOD    1

 MAXIMUM HEAD CHANGE FOR EACH ITERATION:

    HEAD CHANGE   HEAD CHANGE   HEAD CHANGE   HEAD CHANGE   HEAD CHANGE
  LAYER,ROW,COL LAYER,ROW,COL LAYER,ROW,COL LAYER,ROW,COL LAYER,ROW,COL
 ----------------------------------------------------------------------
     -1.605       -0.6222       -0.2331       -0.6604E-01   -0.1532E-01
  (  1,  8,  2) (  1,  7,  5) (  1,  7,  5) (  1,  6,  6) (  1,  5,  8)
    -0.4147E-02   -0.1319E-02   -0.5063E-03
  (  1,  5,  8) (  1,  6,  6) (  1,  6,  6)


 NO OUTPUT CONTROL FOR STRESS PERIOD    1   TIME STEP  19
 
 SOLVING FOR HEAD 
     8 ITERATIONS FOR TIME STEP  20 IN STRESS PERIOD    1

 MAXIMUM HEAD CHANGE FOR EACH ITERATION:

    HEAD CHANGE   HEAD CHANGE   HEAD CHANGE   HEAD CHANGE   HEAD CHANGE
  LAYER,ROW,COL LAYER,ROW,COL LAYER,ROW,COL LAYER,ROW,COL LAYER,ROW,COL
 ----------------------------------------------------------------------
     -1.665       -0.6622       -0.2606       -0.7736E-01   -0.1658E-01
  (  1,  8,  2) (  1,  7,  5) (  1,  6,  5) (  1,  6,  6) (  1,  6,  6)
    -0.3475E-02   -0.1533E-02   -0.6157E-03
  (  1,  5,  8) (  1,  6,  6) (  1,  6,  6)


 OUTPUT CONTROL FOR STRESS PERIOD    1   TIME STEP  20
    PRINT BUDGET
    PRINT HEAD FOR ALL LAYERS
    SAVE BUDGET

            WELLS   PERIOD    1   STEP  20
 WELL      1   LAYER   1   ROW     6   COL     4   RATE    -10.0000    
 WELL      2   LAYER   1   ROW     6   COL     5   RATE    -10.0000    
 WELL      3   LAYER   1   ROW     7   COL     4   RATE    -10.0000    
 WELL      4   LAYER   1   ROW     7   COL     5   RATE    -10.0000    
 WELL      5   LAYER   1   ROW     8   COL     4   RATE    -10.0000    
 WELL      6   LAYER   1   ROW     8   COL     5   RATE    -10.0000    
 WELL      7   LAYER   1   ROW     9   COL     4   RATE    -10.0000    
 WELL      8   LAYER   1   ROW     9   COL     5   RATE    -10.0000    
 WELL      9   LAYER   1   ROW    10   COL     4   RATE    -10.0000    
 WELL     10   LAYER   1   ROW    10   COL     5   RATE    -10.0000    
 UBUDSV SAVING "              ET" ON UNIT 59 AT TIME STEP 20, STRESS PERIOD    1

  HEAD DEP BOUNDS   PERIOD    1   STEP  20
 BOUNDARY      1   LAYER   1   ROW    13   COL     1   RATE   -0.240367    
 BOUNDARY      2   LAYER   1   ROW    14   COL     9   RATE    0.215643    



   STREAM LEAKAGE   PERIOD    1   STEP  20

 LAYER ROW COL. STREAM  RCH.  FLOW INTO    FLOW TO  FLOW OUT OF  OVRLND.   DIRECT    STREAM    STREAM    STREAM    STREAM  STREAMBED  STREAMBED
                SEG.NO.  NO.  STRM. RCH.   AQUIFER   STRM. RCH.  RUNOFF    PRECIP      ET       HEAD      DEPTH     WIDTH  CONDCTNC.   GRADIENT

   1    1    1     1     1    2.500E+01   8.953E-01  2.410E+01  0.00E+00  0.00E+00  0.00E+00  1.09E+03  1.17E+00  1.30E+01  5.84E-01  5.11E-01
   1    2    2     1     2    2.410E+01   3.504E+00  2.060E+01  0.00E+00  0.00E+00  0.00E+00  1.09E+03  1.14E+00  1.25E+01  8.76E-01  1.33E+00
   1    3    3     1     3    2.060E+01   2.880E+00  1.772E+01  0.00E+00  0.00E+00  0.00E+00  1.08E+03  1.09E+00  1.17E+01  7.05E-01  1.36E+00
   1    3    4     1     4    1.772E+01   2.445E+00  1.528E+01  0.00E+00  0.00E+00  0.00E+00  1.08E+03  1.04E+00  1.09E+01  6.05E-01  1.35E+00
   1    4    5     2     1    5.276E+00   2.651E+00  2.624E+00  0.00E+00  0.00E+00  0.00E+00  1.07E+03  3.99E-01  1.20E+01  7.80E-01  1.13E+00
   1    5    6     2     2    2.624E+00   1.942E+00  6.822E-01  0.00E+00  0.00E+00  0.00E+00  1.07E+03  2.37E-01  1.20E+01  6.00E-01  1.08E+00
   1    6    6     2     3    6.822E-01   6.822E-01  0.000E+00  0.00E+00  0.00E+00  0.00E+00  1.06E+03  3.13E-02  1.20E+01  6.00E-01  1.01E+00
   1    7    6     2     4    0.000E+00   0.000E+00  0.000E+00  0.00E+00  0.00E+00  0.00E+00  1.06E+03  0.00E+00  1.20E+01  6.00E-01  1.00E+00
   1    8    6     2     5    0.000E+00   0.000E+00  0.000E+00  0.00E+00  0.00E+00  0.00E+00  1.05E+03  0.00E+00  1.20E+01  6.00E-01  1.00E+00
   1    3    5     3     1    1.000E+01   2.825E+00  7.175E+00  0.00E+00  0.00E+00  0.00E+00  1.08E+03  1.91E+00  9.64E+00  7.23E-01  1.95E+00
   1    3    6     3     2    7.175E+00   2.491E+00  4.684E+00  0.00E+00  0.00E+00  0.00E+00  1.07E+03  1.73E+00  8.91E+00  6.68E-01  1.86E+00
   1    3    7     3     3    4.684E+00   1.543E+00  3.142E+00  0.00E+00  0.00E+00  0.00E+00  1.07E+03  1.55E+00  8.22E+00  5.55E-01  1.39E+00
   1    4    8     3     4    3.142E+00   2.257E+00  8.850E-01  0.00E+00  0.00E+00  0.00E+00  1.07E+03  1.36E+00  7.45E+00  6.71E-01  1.68E+00
   1    5    8     3     5    8.850E-01   8.850E-01  0.000E+00  0.00E+00  0.00E+00  0.00E+00  1.06E+03  1.16E+00  6.65E+00  4.99E-01  1.58E+00
   1    6    8     3     6    0.000E+00   0.000E+00  0.000E+00  0.00E+00  0.00E+00  0.00E+00  1.06E+03  0.00E+00  6.15E+00  1.84E-01  1.00E+00
   1    5   10     4     1    1.000E+01   9.052E-01  9.095E+00  0.00E+00  0.00E+00  0.00E+00  1.08E+03  6.21E-01  1.00E+01  2.50E-01  1.21E+00
   1    5    9     4     2    9.095E+00   1.784E+00  7.311E+00  0.00E+00  0.00E+00  0.00E+00  1.07E+03  5.67E-01  1.00E+01  5.00E-01  1.19E+00
   1    6    8     4     3    7.311E+00   1.226E+00  6.086E+00  0.00E+00  0.00E+00  0.00E+00  1.06E+03  5.02E-01  1.00E+01  3.50E-01  1.17E+00
   1    6    8     5     1    6.086E+00   1.472E+00  4.614E+00  0.00E+00  0.00E+00  0.00E+00  1.06E+03  5.40E-01  1.04E+01  4.16E-01  1.18E+00
   1    7    7     5     2    4.614E+00   1.490E+00  3.124E+00  0.00E+00  0.00E+00  0.00E+00  1.05E+03  4.82E-01  8.56E+00  4.28E-01  1.16E+00
   1    8    7     5     3    3.124E+00   8.286E-01  2.296E+00  0.00E+00  0.00E+00  0.00E+00  1.05E+03  4.25E-01  6.91E+00  2.42E-01  1.14E+00
   1    8    6     5     4    2.296E+00   4.945E-01  1.801E+00  0.00E+00  0.00E+00  0.00E+00  1.05E+03  3.86E-01  5.84E+00  1.46E-01  1.13E+00
   1    9    6     6     1    1.801E+00   1.801E+00  0.000E+00  0.00E+00  0.00E+00  0.00E+00  1.04E+03  1.66E-01  1.20E+01  6.00E-01  1.03E+00
   1   10    7     6     2    0.000E+00   0.000E+00  0.000E+00  0.00E+00  0.00E+00  0.00E+00  1.04E+03  0.00E+00  1.20E+01  6.00E-01  1.00E+00
   1   11    7     6     3    0.000E+00   0.000E+00  0.000E+00  0.00E+00  0.00E+00  0.00E+00  1.03E+03  0.00E+00  1.20E+01  6.00E-01  1.00E+00
   1   12    7     6     4    0.000E+00   0.000E+00  0.000E+00  0.00E+00  0.00E+00  0.00E+00  1.03E+03  0.00E+00  1.20E+01  6.00E-01  1.00E+00
   1   13    7     6     5    0.000E+00  -6.047E-01  6.047E-01  0.00E+00  0.00E+00  0.00E+00  1.03E+03  8.64E-02  1.20E+01  2.40E-01 -8.40E-01
   1   14    9     7     1    1.500E+02   3.012E+00  1.470E+02  0.00E+00  0.00E+00  0.00E+00  1.04E+03  2.28E+00  5.53E+01  5.59E+00  1.80E-01
   1   13    8     7     2    1.470E+02   4.686E+00  1.423E+02  0.00E+00  0.00E+00  0.00E+00  1.03E+03  2.26E+00  5.52E+01  6.14E+00  2.54E-01
   1   13    7     7     3    1.423E+02   6.331E+00  1.360E+02  0.00E+00  0.00E+00  0.00E+00  1.03E+03  2.23E+00  5.50E+01  5.57E+00  3.79E-01
   1   13    6     8     1    1.366E+02   5.419E+00  1.312E+02  0.00E+00  0.00E+00  0.00E+00  1.02E+03  2.70E+00  3.91E+01  3.99E+00  4.53E-01
   1   13    5     8     2    1.312E+02   3.608E+00  1.275E+02  0.00E+00  0.00E+00  0.00E+00  1.02E+03  2.66E+00  3.86E+01  3.94E+00  3.05E-01
   1   13    4     8     3    1.275E+02   1.444E+00  1.261E+02  0.00E+00  0.00E+00  0.00E+00  1.01E+03  2.65E+00  3.84E+01  3.91E+00  1.23E-01
   1   13    3     8     4    1.261E+02  -4.608E-01  1.266E+02  0.00E+00  0.00E+00  0.00E+00  1.01E+03  2.64E+00  3.83E+01  3.90E+00 -3.94E-02
   1   13    2     8     5    1.266E+02  -5.635E-01  1.271E+02  0.00E+00  0.00E+00  0.00E+00  1.00E+03  2.65E+00  3.84E+01  3.91E+00 -4.81E-02
   1   13    1     8     6    1.271E+02   4.578E-01  1.267E+02  0.00E+00  0.00E+00  0.00E+00  9.95E+02  2.65E+00  3.84E+01  2.35E+00  6.51E-02



1
              HEAD IN LAYER   1 AT END OF TIME STEP  20 IN STRESS PERIOD    1
  ---------------------------------------------------------------------------

           1       2       3       4       5       6       7       8       9      10
 ...................................................................................
   1  1092.69 1088.70 6999.00 6999.00 6999.00 6999.00 6999.00 6999.00 6999.00 6999.00
   2  1089.30 1085.20 1076.38 6999.00 6999.00 1069.30 1069.73 1069.82 6999.00 6999.00
   3  6999.00 1074.18 1068.84 1062.18 1062.75 1064.84 1067.09 1066.94 6999.00 6999.00
   4  1064.00 1062.60 1057.89 1051.08 1049.44 1049.46 1054.39 1063.34 1062.65 6999.00
   5  1058.30 1052.28 1044.86 1038.91 1039.38 1043.05 1046.17 1051.85 1059.04 1063.83
   6  1051.47 1042.94 1032.36 1023.44 1025.88 1034.40 1040.67 1046.91 1054.57 1062.19
   7  1046.53 1034.78 1022.51 1012.64 1016.21 1026.40 1034.54 1041.20 1048.79 6999.00
   8  6999.00 1025.75 1014.79 1004.92 1009.24 1019.78 1026.80 1035.82 1043.79 6999.00
   9  6999.00 1019.52 1010.04 1001.17 1005.74 1015.85 1021.44 1029.72 1038.20 6999.00
  10  6999.00 1015.51 1008.68 1002.11 1006.03 1014.41 1019.33 1026.42 1034.38 1039.84
  11  6999.00 1011.89 1009.72 1008.77 1011.58 1016.27 1020.01 1025.78 1031.89 6999.00
  12   999.95 1005.55 1008.85 1011.25 1014.86 1019.05 1022.45 1027.63 1032.77 6999.00
  13   994.33  999.66 1005.88 1011.65 1017.37 1023.22 1028.51 1034.00 1035.96 6999.00
  14  6999.00 1003.78 1008.41 1012.93 1018.06 1023.36 1029.07 1035.01 1039.33 6999.00
  15  6999.00 6999.00 1011.71 1014.81 1018.81 1022.11 6999.00 6999.00 6999.00 6999.00
1
  VOLUMETRIC BUDGET FOR ENTIRE MODEL AT END OF TIME STEP 20 IN STRESS PERIOD   1
  ------------------------------------------------------------------------------

     CUMULATIVE VOLUMES      L**3       RATES FOR THIS TIME STEP      L**3/T
     ------------------                 ------------------------

           IN:                                      IN:
           ---                                      ---
             STORAGE =  5495421440.0000               STORAGE =          58.1169
       CONSTANT HEAD =           0.0000         CONSTANT HEAD =           0.0000
               WELLS =           0.0000                 WELLS =           0.0000
                  ET =           0.0000                    ET =           0.0000
     HEAD DEP BOUNDS =    16726639.0000       HEAD DEP BOUNDS =           0.2156
            RECHARGE =   139277760.0000              RECHARGE =           1.7937
      STREAM LEAKAGE =  4130480640.0000        STREAM LEAKAGE =          59.9577

            TOTAL IN =  9781906430.0000              TOTAL IN =         120.0840

          OUT:                                     OUT:
          ----                                     ----
             STORAGE =     1748962.5000               STORAGE =           0.0000
       CONSTANT HEAD =           0.0000         CONSTANT HEAD =           0.0000
               WELLS =  7764614140.0000                 WELLS =         100.0000
                  ET =  1671054080.0000                    ET =          18.2158
     HEAD DEP BOUNDS =    18936014.0000       HEAD DEP BOUNDS =           0.2404
            RECHARGE =           0.0000              RECHARGE =           0.0000
      STREAM LEAKAGE =   326067744.0000        STREAM LEAKAGE =           1.6290

           TOTAL OUT =  9782420480.0000             TOTAL OUT =         120.0852

            IN - OUT =     -514465.5000              IN - OUT =      -1.2230E-03

 PERCENT DISCREPANCY =          -0.01     PERCENT DISCREPANCY =           0.00






          TIME SUMMARY AT END OF TIME STEP  20 IN STRESS PERIOD    1
                    SECONDS     MINUTES      HOURS       DAYS        YEARS
                    -----------------------------------------------------------
   TIME STEP LENGTH 8.29117E+06 1.38186E+05  2303.1      95.963     0.26273    
 STRESS PERIOD TIME 7.76461E+07 1.29410E+06  21568.      898.68      2.4605    
         TOTAL TIME 7.76461E+07 1.29410E+06  21568.      898.68      2.4605    
1
 
 SOLVING FOR HEAD 
     8 ITERATIONS FOR TIME STEP  21 IN STRESS PERIOD    1

 MAXIMUM HEAD CHANGE FOR EACH ITERATION:

    HEAD CHANGE   HEAD CHANGE   HEAD CHANGE   HEAD CHANGE   HEAD CHANGE
  LAYER,ROW,COL LAYER,ROW,COL LAYER,ROW,COL LAYER,ROW,COL LAYER,ROW,COL
 ----------------------------------------------------------------------
     -1.717       -0.7010       -0.2896       -0.8461E-01   -0.1893E-01
  (  1,  8,  2) (  1,  7,  5) (  1,  6,  5) (  1,  7,  5) (  1,  7,  5)
    -0.3387E-02   -0.1686E-02   -0.6924E-03
  (  1,  5,  8) (  1,  7,  5) (  1,  7,  5)


 NO OUTPUT CONTROL FOR STRESS PERIOD    1   TIME STEP  21
 
 SOLVING FOR HEAD 
     8 ITERATIONS FOR TIME STEP  22 IN STRESS PERIOD    1

 MAXIMUM HEAD CHANGE FOR EACH ITERATION:

    HEAD CHANGE   HEAD CHANGE   HEAD CHANGE   HEAD CHANGE   HEAD CHANGE
  LAYER,ROW,COL LAYER,ROW,COL LAYER,ROW,COL LAYER,ROW,COL LAYER,ROW,COL
 ----------------------------------------------------------------------
     -1.763       -0.7349       -0.3211       -0.9608E-01   -0.2193E-01
  (  1,  8,  2) (  1,  7,  5) (  1,  6,  5) (  1,  7,  5) (  1,  7,  5)
    -0.3329E-02   -0.1982E-02   -0.8389E-03
  (  1,  7,  5) (  1,  7,  5) (  1,  7,  5)


 NO OUTPUT CONTROL FOR STRESS PERIOD    1   TIME STEP  22
 
 SOLVING FOR HEAD 
     9 ITERATIONS FOR TIME STEP  23 IN STRESS PERIOD    1

 MAXIMUM HEAD CHANGE FOR EACH ITERATION:

    HEAD CHANGE   HEAD CHANGE   HEAD CHANGE   HEAD CHANGE   HEAD CHANGE
  LAYER,ROW,COL LAYER,ROW,COL LAYER,ROW,COL LAYER,ROW,COL LAYER,ROW,COL
 ----------------------------------------------------------------------
     -1.800       -0.7710       -0.3576       -0.1086       -0.2547E-01
  (  1,  8,  2) (  1,  6,  5) (  1,  6,  5) (  1,  7,  5) (  1,  7,  5)
    -0.3751E-02   -0.2330E-02   -0.1026E-02   -0.3001E-03
  (  1,  7,  5) (  1,  7,  5) (  1,  7,  5) (  1,  7,  5)


 NO OUTPUT CONTROL FOR STRESS PERIOD    1   TIME STEP  23
 
 SOLVING FOR HEAD 
     9 ITERATIONS FOR TIME STEP  24 IN STRESS PERIOD    1

 MAXIMUM HEAD CHANGE FOR EACH ITERATION:

    HEAD CHANGE   HEAD CHANGE   HEAD CHANGE   HEAD CHANGE   HEAD CHANGE
  LAYER,ROW,COL LAYER,ROW,COL LAYER,ROW,COL LAYER,ROW,COL LAYER,ROW,COL
 ----------------------------------------------------------------------
     -1.831       -0.8139       -0.3975       -0.1241       -0.2955E-01
  (  1,  8,  2) (  1,  6,  5) (  1,  6,  5) (  1,  7,  5) (  1,  7,  5)
    -0.4301E-02   -0.2761E-02   -0.1280E-02   -0.3864E-03
  (  1,  7,  8) (  1,  7,  5) (  1,  7,  5) (  1,  7,  5)


 NO OUTPUT CONTROL FOR STRESS PERIOD    1   TIME STEP  24
 
 SOLVING FOR HEAD 
     9 ITERATIONS FOR TIME STEP  25 IN STRESS PERIOD    1

 MAXIMUM HEAD CHANGE FOR EACH ITERATION:

    HEAD CHANGE   HEAD CHANGE   HEAD CHANGE   HEAD CHANGE   HEAD CHANGE
  LAYER,ROW,COL LAYER,ROW,COL LAYER,ROW,COL LAYER,ROW,COL LAYER,ROW,COL
 ----------------------------------------------------------------------
     -1.922       -0.8575       -0.4413       -0.1417       -0.3433E-01
  (  1,  7,  1) (  1,  6,  5) (  1,  6,  5) (  1,  7,  5) (  1,  7,  5)
    -0.5058E-02   -0.3273E-02   -0.1594E-02   -0.4980E-03
  (  1,  7,  8) (  1,  7,  5) (  1,  7,  5) (  1,  7,  5)


 OUTPUT CONTROL FOR STRESS PERIOD    1   TIME STEP  25
    PRINT BUDGET
    PRINT HEAD FOR ALL LAYERS
    SAVE BUDGET

            WELLS   PERIOD    1   STEP  25
 WELL      1   LAYER   1   ROW     6   COL     4   RATE    -10.0000    
 WELL      2   LAYER   1   ROW     6   COL     5   RATE    -10.0000    
 WELL      3   LAYER   1   ROW     7   COL     4   RATE    -10.0000    
 WELL      4   LAYER   1   ROW     7   COL     5   RATE    -10.0000    
 WELL      5   LAYER   1   ROW     8   COL     4   RATE    -10.0000    
 WELL      6   LAYER   1   ROW     8   COL     5   RATE    -10.0000    
 WELL      7   LAYER   1   ROW     9   COL     4   RATE    -10.0000    
 WELL      8   LAYER   1   ROW     9   COL     5   RATE    -10.0000    
 WELL      9   LAYER   1   ROW    10   COL     4   RATE    -10.0000    
 WELL     10   LAYER   1   ROW    10   COL     5   RATE    -10.0000    
 UBUDSV SAVING "              ET" ON UNIT 59 AT TIME STEP 25, STRESS PERIOD    1

  HEAD DEP BOUNDS   PERIOD    1   STEP  25
 BOUNDARY      1   LAYER   1   ROW    13   COL     1   RATE   -0.236454    
 BOUNDARY      2   LAYER   1   ROW    14   COL     9   RATE    0.216079    



   STREAM LEAKAGE   PERIOD    1   STEP  25

 LAYER ROW COL. STREAM  RCH.  FLOW INTO    FLOW TO  FLOW OUT OF  OVRLND.   DIRECT    STREAM    STREAM    STREAM    STREAM  STREAMBED  STREAMBED
                SEG.NO.  NO.  STRM. RCH.   AQUIFER   STRM. RCH.  RUNOFF    PRECIP      ET       HEAD      DEPTH     WIDTH  CONDCTNC.   GRADIENT

   1    1    1     1     1    2.500E+01   1.201E+00  2.380E+01  0.00E+00  0.00E+00  0.00E+00  1.09E+03  1.17E+00  1.29E+01  5.82E-01  6.87E-01
   1    2    2     1     2    2.380E+01   3.600E+00  2.020E+01  0.00E+00  0.00E+00  0.00E+00  1.09E+03  1.13E+00  1.24E+01  8.71E-01  1.38E+00
   1    3    3     1     3    2.020E+01   2.847E+00  1.735E+01  0.00E+00  0.00E+00  0.00E+00  1.08E+03  1.08E+00  1.16E+01  6.98E-01  1.36E+00
   1    3    4     1     4    1.735E+01   2.415E+00  1.494E+01  0.00E+00  0.00E+00  0.00E+00  1.08E+03  1.03E+00  1.08E+01  5.99E-01  1.34E+00
   1    4    5     2     1    4.937E+00   2.635E+00  2.302E+00  0.00E+00  0.00E+00  0.00E+00  1.07E+03  3.79E-01  1.20E+01  7.80E-01  1.13E+00
   1    5    6     2     2    2.302E+00   1.925E+00  3.765E-01  0.00E+00  0.00E+00  0.00E+00  1.07E+03  2.09E-01  1.20E+01  6.00E-01  1.07E+00
   1    6    6     2     3    3.765E-01   3.765E-01  0.000E+00  0.00E+00  0.00E+00  0.00E+00  1.06E+03  2.19E-02  1.20E+01  6.00E-01  1.01E+00
   1    7    6     2     4    0.000E+00   0.000E+00  0.000E+00  0.00E+00  0.00E+00  0.00E+00  1.06E+03  0.00E+00  1.20E+01  6.00E-01  1.00E+00
   1    8    6     2     5    0.000E+00   0.000E+00  0.000E+00  0.00E+00  0.00E+00  0.00E+00  1.05E+03  0.00E+00  1.20E+01  6.00E-01  1.00E+00
   1    3    5     3     1    1.000E+01   2.825E+00  7.175E+00  0.00E+00  0.00E+00  0.00E+00  1.08E+03  1.91E+00  9.64E+00  7.23E-01  1.95E+00
   1    3    6     3     2    7.175E+00   2.491E+00  4.684E+00  0.00E+00  0.00E+00  0.00E+00  1.07E+03  1.73E+00  8.91E+00  6.68E-01  1.86E+00
   1    3    7     3     3    4.684E+00   1.972E+00  2.712E+00  0.00E+00  0.00E+00  0.00E+00  1.07E+03  1.55E+00  8.22E+00  5.55E-01  1.78E+00
   1    4    8     3     4    2.712E+00   2.257E+00  4.558E-01  0.00E+00  0.00E+00  0.00E+00  1.07E+03  1.36E+00  7.45E+00  6.71E-01  1.68E+00
   1    5    8     3     5    4.558E-01   4.558E-01  0.000E+00  0.00E+00  0.00E+00  0.00E+00  1.06E+03  1.16E+00  6.65E+00  4.99E-01  1.58E+00
   1    6    8     3     6    0.000E+00   0.000E+00  0.000E+00  0.00E+00  0.00E+00  0.00E+00  1.06E+03  0.00E+00  6.15E+00  1.84E-01  1.00E+00
   1    5   10     4     1    1.000E+01   9.052E-01  9.095E+00  0.00E+00  0.00E+00  0.00E+00  1.08E+03  6.21E-01  1.00E+01  2.50E-01  1.21E+00
   1    5    9     4     2    9.095E+00   1.784E+00  7.311E+00  0.00E+00  0.00E+00  0.00E+00  1.07E+03  5.67E-01  1.00E+01  5.00E-01  1.19E+00
   1    6    8     4     3    7.311E+00   1.226E+00  6.086E+00  0.00E+00  0.00E+00  0.00E+00  1.06E+03  5.02E-01  1.00E+01  3.50E-01  1.17E+00
   1    6    8     5     1    6.086E+00   1.472E+00  4.614E+00  0.00E+00  0.00E+00  0.00E+00  1.06E+03  5.40E-01  1.04E+01  4.16E-01  1.18E+00
   1    7    7     5     2    4.614E+00   1.490E+00  3.124E+00  0.00E+00  0.00E+00  0.00E+00  1.05E+03  4.82E-01  8.56E+00  4.28E-01  1.16E+00
   1    8    7     5     3    3.124E+00   8.286E-01  2.296E+00  0.00E+00  0.00E+00  0.00E+00  1.05E+03  4.25E-01  6.91E+00  2.42E-01  1.14E+00
   1    8    6     5     4    2.296E+00   4.945E-01  1.801E+00  0.00E+00  0.00E+00  0.00E+00  1.05E+03  3.86E-01  5.84E+00  1.46E-01  1.13E+00
   1    9    6     6     1    1.801E+00   1.801E+00  0.000E+00  0.00E+00  0.00E+00  0.00E+00  1.04E+03  1.66E-01  1.20E+01  6.00E-01  1.03E+00
   1   10    7     6     2    0.000E+00   0.000E+00  0.000E+00  0.00E+00  0.00E+00  0.00E+00  1.04E+03  0.00E+00  1.20E+01  6.00E-01  1.00E+00
   1   11    7     6     3    0.000E+00   0.000E+00  0.000E+00  0.00E+00  0.00E+00  0.00E+00  1.03E+03  0.00E+00  1.20E+01  6.00E-01  1.00E+00
   1   12    7     6     4    0.000E+00   0.000E+00  0.000E+00  0.00E+00  0.00E+00  0.00E+00  1.03E+03  0.00E+00  1.20E+01  6.00E-01  1.00E+00
   1   13    7     6     5    0.000E+00  -5.459E-01  5.459E-01  0.00E+00  0.00E+00  0.00E+00  1.03E+03  8.12E-02  1.20E+01  2.40E-01 -7.58E-01
   1   14    9     7     1    1.500E+02   3.075E+00  1.469E+02  0.00E+00  0.00E+00  0.00E+00  1.04E+03  2.28E+00  5.53E+01  5.59E+00  1.83E-01
   1   13    8     7     2    1.469E+02   5.054E+00  1.419E+02  0.00E+00  0.00E+00  0.00E+00  1.03E+03  2.26E+00  5.52E+01  6.14E+00  2.74E-01
   1   13    7     7     3    1.419E+02   7.683E+00  1.342E+02  0.00E+00  0.00E+00  0.00E+00  1.03E+03  2.23E+00  5.50E+01  5.56E+00  4.60E-01
   1   13    6     8     1    1.347E+02   7.043E+00  1.277E+02  0.00E+00  0.00E+00  0.00E+00  1.02E+03  2.68E+00  3.88E+01  3.96E+00  5.93E-01
   1   13    5     8     2    1.277E+02   5.471E+00  1.222E+02  0.00E+00  0.00E+00  0.00E+00  1.02E+03  2.63E+00  3.81E+01  3.89E+00  4.69E-01
   1   13    4     8     3    1.222E+02   3.070E+00  1.191E+02  0.00E+00  0.00E+00  0.00E+00  1.01E+03  2.60E+00  3.76E+01  3.84E+00  2.67E-01
   1   13    3     8     4    1.191E+02   6.329E-01  1.185E+02  0.00E+00  0.00E+00  0.00E+00  1.01E+03  2.58E+00  3.74E+01  3.81E+00  5.53E-02
   1   13    2     8     5    1.185E+02  -2.372E-01  1.188E+02  0.00E+00  0.00E+00  0.00E+00  9.99E+02  2.58E+00  3.74E+01  3.81E+00 -2.07E-02
   1   13    1     8     6    1.188E+02   5.281E-01  1.182E+02  0.00E+00  0.00E+00  0.00E+00  9.94E+02  2.58E+00  3.74E+01  2.29E+00  7.70E-02



1
              HEAD IN LAYER   1 AT END OF TIME STEP  25 IN STRESS PERIOD    1
  ---------------------------------------------------------------------------

           1       2       3       4       5       6       7       8       9      10
 ...................................................................................
   1  1092.16 1086.57 6999.00 6999.00 6999.00 6999.00 6999.00 6999.00 6999.00 6999.00
   2  1087.50 1081.14 1070.20 6999.00 6999.00 1064.03 1066.08 1066.86 6999.00 6999.00
   3  6999.00 1067.70 1060.81 1053.11 1053.52 1056.94 1062.11 1062.42 6999.00 6999.00
   4  1056.16 1054.19 1048.62 1041.06 1039.18 1039.34 1045.54 1055.79 1055.25 6999.00
   5  1049.45 1042.37 1034.32 1028.09 1028.53 1032.30 1035.58 1041.46 1049.69 1055.58
   6  1041.47 1031.88 1020.93 1012.01 1014.54 1023.22 1029.76 1036.23 1044.96 1054.59
   7  1035.74 1022.92 1010.65 1001.07 1004.86 1015.33 1023.67 1030.36 1039.09 6999.00
   8  6999.00 1013.41 1003.04  993.78  998.45 1009.30 1016.44 1025.46 1034.82 6999.00
   9  6999.00 1007.93  999.37  991.23  996.13 1006.51 1012.22 1020.60 1030.45 6999.00
  10  6999.00 1006.04 1000.09  994.05  998.14 1006.72 1011.78 1019.16 1028.44 1035.79
  11  6999.00 1005.72 1004.31 1003.12 1005.93 1010.73 1014.63 1020.81 1027.54 6999.00
  12   998.76 1003.22 1006.46 1008.21 1011.72 1016.06 1019.78 1026.00 1031.03 6999.00
  13   994.22  999.52 1005.54 1011.17 1016.85 1022.77 1028.27 1033.94 1035.76 6999.00
  14  6999.00 1003.51 1008.02 1012.45 1017.56 1022.94 1028.80 1034.93 1039.31 6999.00
  15  6999.00 6999.00 1011.36 1014.41 1018.38 1021.70 6999.00 6999.00 6999.00 6999.00
1
  VOLUMETRIC BUDGET FOR ENTIRE MODEL AT END OF TIME STEP 25 IN STRESS PERIOD   1
  ------------------------------------------------------------------------------

     CUMULATIVE VOLUMES      L**3       RATES FOR THIS TIME STEP      L**3/T
     ------------------                 ------------------------

           IN:                                      IN:
           ---                                      ---
             STORAGE =  8386494980.0000               STORAGE =          48.4113
       CONSTANT HEAD =           0.0000         CONSTANT HEAD =           0.0000
               WELLS =           0.0000                 WELLS =           0.0000
                  ET =           0.0000                    ET =           0.0000
     HEAD DEP BOUNDS =    28748592.0000       HEAD DEP BOUNDS =           0.2161
            RECHARGE =   239154240.0000              RECHARGE =           1.7937
      STREAM LEAKAGE =  7730046460.0000        STREAM LEAKAGE =          67.5575

            TOTAL IN = 16384444400.0000              TOTAL IN =         117.9786

          OUT:                                     OUT:
          ----                                     ----
             STORAGE =     1748962.5000               STORAGE =           0.0000
       CONSTANT HEAD =           0.0000         CONSTANT HEAD =           0.0000
               WELLS = 13332639700.0000                 WELLS =         100.0000
                  ET =  2638577410.0000                    ET =          16.9627
     HEAD DEP BOUNDS =    32182764.0000       HEAD DEP BOUNDS =           0.2365
            RECHARGE =           0.0000              RECHARGE =           0.0000
      STREAM LEAKAGE =   379935808.0000        STREAM LEAKAGE =           0.7832

           TOTAL OUT = 16385084400.0000             TOTAL OUT =         117.9823

            IN - OUT =     -640414.5000              IN - OUT =      -3.7166E-03

 PERCENT DISCREPANCY =           0.00     PERCENT DISCREPANCY =           0.00






          TIME SUMMARY AT END OF TIME STEP  25 IN STRESS PERIOD    1
                    SECONDS     MINUTES      HOURS       DAYS        YEARS
                    -----------------------------------------------------------
   TIME STEP LENGTH 1.33530E+07 2.22550E+05  3709.2      154.55     0.42313    
 STRESS PERIOD TIME 1.33326E+08 2.22211E+06  37035.      1543.1      4.2249    
         TOTAL TIME 1.33326E+08 2.22211E+06  37035.      1543.1      4.2249    
1
 
 SOLVING FOR HEAD 
     9 ITERATIONS FOR TIME STEP  26 IN STRESS PERIOD    1

 MAXIMUM HEAD CHANGE FOR EACH ITERATION:

    HEAD CHANGE   HEAD CHANGE   HEAD CHANGE   HEAD CHANGE   HEAD CHANGE
  LAYER,ROW,COL LAYER,ROW,COL LAYER,ROW,COL LAYER,ROW,COL LAYER,ROW,COL
 ----------------------------------------------------------------------
     -2.042       -0.9013       -0.4889       -0.1617       -0.3993E-01
  (  1,  7,  1) (  1,  6,  5) (  1,  6,  5) (  1,  7,  5) (  1,  7,  5)
    -0.5945E-02   -0.3875E-02   -0.1983E-02   -0.6408E-03
  (  1,  7,  8) (  1,  7,  5) (  1,  7,  5) (  1,  7,  5)


 NO OUTPUT CONTROL FOR STRESS PERIOD    1   TIME STEP  26
 
 SOLVING FOR HEAD 
     9 ITERATIONS FOR TIME STEP  27 IN STRESS PERIOD    1

 MAXIMUM HEAD CHANGE FOR EACH ITERATION:

    HEAD CHANGE   HEAD CHANGE   HEAD CHANGE   HEAD CHANGE   HEAD CHANGE
  LAYER,ROW,COL LAYER,ROW,COL LAYER,ROW,COL LAYER,ROW,COL LAYER,ROW,COL
 ----------------------------------------------------------------------
     -2.155       -0.9445       -0.5400       -0.1843       -0.4644E-01
  (  1,  7,  1) (  1,  6,  5) (  1,  6,  5) (  1,  7,  5) (  1,  7,  5)
    -0.6977E-02   -0.4580E-02   -0.2461E-02   -0.8270E-03
  (  1,  7,  8) (  1,  7,  5) (  1,  7,  5) (  1,  7,  5)


 NO OUTPUT CONTROL FOR STRESS PERIOD    1   TIME STEP  27
 
 SOLVING FOR HEAD 
    10 ITERATIONS FOR TIME STEP  28 IN STRESS PERIOD    1

 MAXIMUM HEAD CHANGE FOR EACH ITERATION:

    HEAD CHANGE   HEAD CHANGE   HEAD CHANGE   HEAD CHANGE   HEAD CHANGE
  LAYER,ROW,COL LAYER,ROW,COL LAYER,ROW,COL LAYER,ROW,COL LAYER,ROW,COL
 ----------------------------------------------------------------------
     -2.260       -0.9864       -0.5942       -0.2096       -0.5401E-01
  (  1,  7,  1) (  1,  6,  5) (  1,  6,  5) (  1,  7,  5) (  1,  7,  5)
    -0.8167E-02   -0.5408E-02   -0.3038E-02   -0.1063E-02   -0.2810E-03
  (  1,  7,  8) (  1,  6,  5) (  1,  7,  5) (  1,  7,  5) (  1,  7,  5)


 NO OUTPUT CONTROL FOR STRESS PERIOD    1   TIME STEP  28
 
 SOLVING FOR HEAD 
    10 ITERATIONS FOR TIME STEP  29 IN STRESS PERIOD    1

 MAXIMUM HEAD CHANGE FOR EACH ITERATION:

    HEAD CHANGE   HEAD CHANGE   HEAD CHANGE   HEAD CHANGE   HEAD CHANGE
  LAYER,ROW,COL LAYER,ROW,COL LAYER,ROW,COL LAYER,ROW,COL LAYER,ROW,COL
 ----------------------------------------------------------------------
     -2.355        -1.027       -0.6498       -0.2369       -0.6262E-01
  (  1,  7,  1) (  1,  6,  6) (  1,  6,  5) (  1,  7,  5) (  1,  7,  5)
    -0.9539E-02   -0.6405E-02   -0.3740E-02   -0.1364E-02   -0.3685E-03
  (  1,  7,  8) (  1,  6,  5) (  1,  7,  5) (  1,  7,  5) (  1,  7,  5)


 NO OUTPUT CONTROL FOR STRESS PERIOD    1   TIME STEP  29
 
 SOLVING FOR HEAD 
    10 ITERATIONS FOR TIME STEP  30 IN STRESS PERIOD    1

 MAXIMUM HEAD CHANGE FOR EACH ITERATION:

    HEAD CHANGE   HEAD CHANGE   HEAD CHANGE   HEAD CHANGE   HEAD CHANGE
  LAYER,ROW,COL LAYER,ROW,COL LAYER,ROW,COL LAYER,ROW,COL LAYER,ROW,COL
 ----------------------------------------------------------------------
     -2.442        -1.062       -0.7054       -0.2683       -0.7281E-01
  (  1,  7,  1) (  1,  6,  8) (  1,  6,  5) (  1,  6,  5) (  1,  7,  5)
    -0.1108E-01   -0.7540E-02   -0.4577E-02   -0.1741E-02   -0.4795E-03
  (  1,  7,  8) (  1,  6,  5) (  1,  7,  5) (  1,  6,  5) (  1,  7,  5)


 OUTPUT CONTROL FOR STRESS PERIOD    1   TIME STEP  30
    PRINT BUDGET
    PRINT HEAD FOR ALL LAYERS
    SAVE BUDGET

            WELLS   PERIOD    1   STEP  30
 WELL      1   LAYER   1   ROW     6   COL     4   RATE    -10.0000    
 WELL      2   LAYER   1   ROW     6   COL     5   RATE    -10.0000    
 WELL      3   LAYER   1   ROW     7   COL     4   RATE    -10.0000    
 WELL      4   LAYER   1   ROW     7   COL     5   RATE    -10.0000    
 WELL      5   LAYER   1   ROW     8   COL     4   RATE    -10.0000    
 WELL      6   LAYER   1   ROW     8   COL     5   RATE    -10.0000    
 WELL      7   LAYER   1   ROW     9   COL     4   RATE    -10.0000    
 WELL      8   LAYER   1   ROW     9   COL     5   RATE    -10.0000    
 WELL      9   LAYER   1   ROW    10   COL     4   RATE    -10.0000    
 WELL     10   LAYER   1   ROW    10   COL     5   RATE    -10.0000    
 UBUDSV SAVING "              ET" ON UNIT 59 AT TIME STEP 30, STRESS PERIOD    1

  HEAD DEP BOUNDS   PERIOD    1   STEP  30
 BOUNDARY      1   LAYER   1   ROW    13   COL     1   RATE   -0.232226    
 BOUNDARY      2   LAYER   1   ROW    14   COL     9   RATE    0.216626    



   STREAM LEAKAGE   PERIOD    1   STEP  30

 LAYER ROW COL. STREAM  RCH.  FLOW INTO    FLOW TO  FLOW OUT OF  OVRLND.   DIRECT    STREAM    STREAM    STREAM    STREAM  STREAMBED  STREAMBED
                SEG.NO.  NO.  STRM. RCH.   AQUIFER   STRM. RCH.  RUNOFF    PRECIP      ET       HEAD      DEPTH     WIDTH  CONDCTNC.   GRADIENT

   1    1    1     1     1    2.500E+01   1.966E+00  2.303E+01  0.00E+00  0.00E+00  0.00E+00  1.09E+03  1.17E+00  1.29E+01  5.79E-01  1.13E+00
   1    2    2     1     2    2.303E+01   3.543E+00  1.949E+01  0.00E+00  0.00E+00  0.00E+00  1.09E+03  1.12E+00  1.23E+01  8.60E-01  1.37E+00
   1    3    3     1     3    1.949E+01   2.787E+00  1.670E+01  0.00E+00  0.00E+00  0.00E+00  1.08E+03  1.07E+00  1.14E+01  6.85E-01  1.36E+00
   1    3    4     1     4    1.670E+01   2.361E+00  1.434E+01  0.00E+00  0.00E+00  0.00E+00  1.08E+03  1.02E+00  1.06E+01  5.87E-01  1.34E+00
   1    4    5     2     1    4.342E+00   2.606E+00  1.736E+00  0.00E+00  0.00E+00  0.00E+00  1.07E+03  3.41E-01  1.20E+01  7.80E-01  1.11E+00
   1    5    6     2     2    1.736E+00   1.736E+00  0.000E+00  0.00E+00  0.00E+00  0.00E+00  1.07E+03  1.61E-01  1.20E+01  6.00E-01  1.02E+00
   1    6    6     2     3    0.000E+00   0.000E+00  0.000E+00  0.00E+00  0.00E+00  0.00E+00  1.06E+03  0.00E+00  1.20E+01  6.00E-01  1.00E+00
   1    7    6     2     4    0.000E+00   0.000E+00  0.000E+00  0.00E+00  0.00E+00  0.00E+00  1.06E+03  0.00E+00  1.20E+01  6.00E-01  1.00E+00
   1    8    6     2     5    0.000E+00   0.000E+00  0.000E+00  0.00E+00  0.00E+00  0.00E+00  1.05E+03  0.00E+00  1.20E+01  6.00E-01  1.00E+00
   1    3    5     3     1    1.000E+01   2.825E+00  7.175E+00  0.00E+00  0.00E+00  0.00E+00  1.08E+03  1.91E+00  9.64E+00  7.23E-01  1.95E+00
   1    3    6     3     2    7.175E+00   2.491E+00  4.684E+00  0.00E+00  0.00E+00  0.00E+00  1.07E+03  1.73E+00  8.91E+00  6.68E-01  1.86E+00
   1    3    7     3     3    4.684E+00   1.972E+00  2.712E+00  0.00E+00  0.00E+00  0.00E+00  1.07E+03  1.55E+00  8.22E+00  5.55E-01  1.78E+00
   1    4    8     3     4    2.712E+00   2.257E+00  4.558E-01  0.00E+00  0.00E+00  0.00E+00  1.07E+03  1.36E+00  7.45E+00  6.71E-01  1.68E+00
   1    5    8     3     5    4.558E-01   4.558E-01  0.000E+00  0.00E+00  0.00E+00  0.00E+00  1.06E+03  1.16E+00  6.65E+00  4.99E-01  1.58E+00
   1    6    8     3     6    0.000E+00   0.000E+00  0.000E+00  0.00E+00  0.00E+00  0.00E+00  1.06E+03  0.00E+00  6.15E+00  1.84E-01  1.00E+00
   1    5   10     4     1    1.000E+01   9.052E-01  9.095E+00  0.00E+00  0.00E+00  0.00E+00  1.08E+03  6.21E-01  1.00E+01  2.50E-01  1.21E+00
   1    5    9     4     2    9.095E+00   1.784E+00  7.311E+00  0.00E+00  0.00E+00  0.00E+00  1.07E+03  5.67E-01  1.00E+01  5.00E-01  1.19E+00
   1    6    8     4     3    7.311E+00   1.226E+00  6.086E+00  0.00E+00  0.00E+00  0.00E+00  1.06E+03  5.02E-01  1.00E+01  3.50E-01  1.17E+00
   1    6    8     5     1    6.086E+00   1.472E+00  4.614E+00  0.00E+00  0.00E+00  0.00E+00  1.06E+03  5.40E-01  1.04E+01  4.16E-01  1.18E+00
   1    7    7     5     2    4.614E+00   1.490E+00  3.124E+00  0.00E+00  0.00E+00  0.00E+00  1.05E+03  4.82E-01  8.56E+00  4.28E-01  1.16E+00
   1    8    7     5     3    3.124E+00   8.286E-01  2.296E+00  0.00E+00  0.00E+00  0.00E+00  1.05E+03  4.25E-01  6.91E+00  2.42E-01  1.14E+00
   1    8    6     5     4    2.296E+00   4.945E-01  1.801E+00  0.00E+00  0.00E+00  0.00E+00  1.05E+03  3.86E-01  5.84E+00  1.46E-01  1.13E+00
   1    9    6     6     1    1.801E+00   1.801E+00  0.000E+00  0.00E+00  0.00E+00  0.00E+00  1.04E+03  1.66E-01  1.20E+01  6.00E-01  1.03E+00
   1   10    7     6     2    0.000E+00   0.000E+00  0.000E+00  0.00E+00  0.00E+00  0.00E+00  1.04E+03  0.00E+00  1.20E+01  6.00E-01  1.00E+00
   1   11    7     6     3    0.000E+00   0.000E+00  0.000E+00  0.00E+00  0.00E+00  0.00E+00  1.03E+03  0.00E+00  1.20E+01  6.00E-01  1.00E+00
   1   12    7     6     4    0.000E+00   0.000E+00  0.000E+00  0.00E+00  0.00E+00  0.00E+00  1.03E+03  0.00E+00  1.20E+01  6.00E-01  1.00E+00
   1   13    7     6     5    0.000E+00  -4.829E-01  4.829E-01  0.00E+00  0.00E+00  0.00E+00  1.03E+03  7.55E-02  1.20E+01  2.40E-01 -6.71E-01
   1   14    9     7     1    1.500E+02   3.154E+00  1.468E+02  0.00E+00  0.00E+00  0.00E+00  1.04E+03  2.28E+00  5.53E+01  5.59E+00  1.88E-01
   1   13    8     7     2    1.468E+02   5.492E+00  1.414E+02  0.00E+00  0.00E+00  0.00E+00  1.03E+03  2.26E+00  5.52E+01  6.14E+00  2.98E-01
   1   13    7     7     3    1.414E+02   9.133E+00  1.322E+02  0.00E+00  0.00E+00  0.00E+00  1.03E+03  2.22E+00  5.50E+01  5.56E+00  5.48E-01
   1   13    6     8     1    1.327E+02   8.775E+00  1.239E+02  0.00E+00  0.00E+00  0.00E+00  1.02E+03  2.66E+00  3.85E+01  3.93E+00  7.45E-01
   1   13    5     8     2    1.239E+02   7.406E+00  1.165E+02  0.00E+00  0.00E+00  0.00E+00  1.02E+03  2.59E+00  3.76E+01  3.83E+00  6.44E-01
   1   13    4     8     3    1.165E+02   4.725E+00  1.118E+02  0.00E+00  0.00E+00  0.00E+00  1.01E+03  2.54E+00  3.69E+01  3.76E+00  4.19E-01
   1   13    3     8     4    1.118E+02   1.722E+00  1.101E+02  0.00E+00  0.00E+00  0.00E+00  1.01E+03  2.52E+00  3.65E+01  3.72E+00  1.54E-01
   1   13    2     8     5    1.101E+02   8.241E-02  1.100E+02  0.00E+00  0.00E+00  0.00E+00  9.99E+02  2.51E+00  3.64E+01  3.71E+00  7.41E-03
   1   13    1     8     6    1.100E+02   5.968E-01  1.094E+02  0.00E+00  0.00E+00  0.00E+00  9.94E+02  2.50E+00  3.63E+01  2.22E+00  8.96E-02



1
              HEAD IN LAYER   1 AT END OF TIME STEP  30 IN STRESS PERIOD    1
  ---------------------------------------------------------------------------

           1       2       3       4       5       6       7       8       9      10
 ...................................................................................
   1  1090.82 1081.49 6999.00 6999.00 6999.00 6999.00 6999.00 6999.00 6999.00 6999.00
   2  1082.86 1072.87 1059.68 6999.00 6999.00 1053.10 1055.92 1057.47 6999.00 6999.00
   3  6999.00 1056.82 1048.61 1040.14 1040.35 1044.23 1050.22 1051.18 6999.00 6999.00
   4  1043.12 1041.30 1035.41 1027.42 1025.36 1025.49 1032.11 1043.03 1042.20 6999.00
   5  1035.59 1028.24 1020.24 1014.03 1014.44 1018.22 1021.60 1027.59 1036.00 1042.35
   6  1026.76 1017.06 1006.45  997.75 1000.39 1009.17 1015.89 1022.39 1031.16 1041.44
   7  1020.56 1007.97  996.34  987.21  991.24 1001.95 1010.32 1016.69 1025.56 6999.00
   8  6999.00  999.24  989.66  980.97  985.97  997.10 1004.25 1012.67 1022.15 6999.00
   9  6999.00  995.44  987.77  980.22  985.40  996.02 1001.78 1009.75 1019.70 6999.00
  10  6999.00  996.25  991.10  985.39  989.58  998.30 1003.46 1010.75 1020.26 1028.29
  11  6999.00  999.54  998.79  997.18  999.91 1004.77 1008.82 1015.18 1021.98 6999.00
  12   997.53 1000.93 1004.02 1005.05 1008.41 1012.82 1016.90 1023.95 1028.82 6999.00
  13   994.11  999.36 1005.18 1010.66 1016.28 1022.30 1028.00 1033.86 1035.52 6999.00
  14  6999.00 1003.18 1007.57 1011.91 1016.99 1022.45 1028.51 1034.82 1039.30 6999.00
  15  6999.00 6999.00 1010.81 1013.81 1017.76 1021.12 6999.00 6999.00 6999.00 6999.00
1
  VOLUMETRIC BUDGET FOR ENTIRE MODEL AT END OF TIME STEP 30 IN STRESS PERIOD   1
  ------------------------------------------------------------------------------

     CUMULATIVE VOLUMES      L**3       RATES FOR THIS TIME STEP      L**3/T
     ------------------                 ------------------------

           IN:                                      IN:
           ---                                      ---
             STORAGE = 12163830800.0000               STORAGE =          38.5406
       CONSTANT HEAD =           0.0000         CONSTANT HEAD =           0.0000
               WELLS =           0.0000                 WELLS =           0.0000
                  ET =           0.0000                    ET =           0.0000
     HEAD DEP BOUNDS =    48155792.0000       HEAD DEP BOUNDS =           0.2166
            RECHARGE =   400006336.0000              RECHARGE =           1.7937
      STREAM LEAKAGE = 14269895700.0000        STREAM LEAKAGE =          76.0854

            TOTAL IN = 26881888300.0000              TOTAL IN =         116.6364

          OUT:                                     OUT:
          ----                                     ----
             STORAGE =     1748962.5000               STORAGE =           0.0000
       CONSTANT HEAD =           0.0000         CONSTANT HEAD =           0.0000
               WELLS = 22300004400.0000                 WELLS =         100.0000
                  ET =  4097477120.0000                    ET =          15.9240
     HEAD DEP BOUNDS =    53146188.0000       HEAD DEP BOUNDS =           0.2322
            RECHARGE =           0.0000              RECHARGE =           0.0000
      STREAM LEAKAGE =   430375040.0000        STREAM LEAKAGE =           0.4829

           TOTAL OUT = 26882752500.0000             TOTAL OUT =         116.6391

            IN - OUT =     -863070.5000              IN - OUT =      -2.6827E-03

 PERCENT DISCREPANCY =           0.00     PERCENT DISCREPANCY =           0.00






          TIME SUMMARY AT END OF TIME STEP  30 IN STRESS PERIOD    1
                    SECONDS     MINUTES      HOURS       DAYS        YEARS
                    -----------------------------------------------------------
   TIME STEP LENGTH 2.15052E+07 3.58419E+05  5973.7      248.90     0.68146    
 STRESS PERIOD TIME 2.23000E+08 3.71667E+06  61944.      2581.0      7.0664    
         TOTAL TIME 2.23000E+08 3.71667E+06  61944.      2581.0      7.0664    
1
 
 SOLVING FOR HEAD 
    10 ITERATIONS FOR TIME STEP  31 IN STRESS PERIOD    1

 MAXIMUM HEAD CHANGE FOR EACH ITERATION:

    HEAD CHANGE   HEAD CHANGE   HEAD CHANGE   HEAD CHANGE   HEAD CHANGE
  LAYER,ROW,COL LAYER,ROW,COL LAYER,ROW,COL LAYER,ROW,COL LAYER,ROW,COL
 ----------------------------------------------------------------------
     -2.518        -1.106       -0.7681       -0.3025       -0.8454E-01
  (  1,  7,  1) (  1,  6,  8) (  1,  5,  5) (  1,  6,  5) (  1,  2,  3)
    -0.1282E-01   -0.8833E-02   -0.5603E-02   -0.2229E-02   -0.6229E-03
  (  1,  7,  8) (  1,  6,  5) (  1,  7,  5) (  1,  6,  5) (  1,  7,  5)


 NO OUTPUT CONTROL FOR STRESS PERIOD    1   TIME STEP  31
 
 SOLVING FOR HEAD 
    10 ITERATIONS FOR TIME STEP  32 IN STRESS PERIOD    1

 MAXIMUM HEAD CHANGE FOR EACH ITERATION:

    HEAD CHANGE   HEAD CHANGE   HEAD CHANGE   HEAD CHANGE   HEAD CHANGE
  LAYER,ROW,COL LAYER,ROW,COL LAYER,ROW,COL LAYER,ROW,COL LAYER,ROW,COL
 ----------------------------------------------------------------------
     -2.585        -1.146       -0.8322       -0.3393       -0.9953E-01
  (  1,  7,  1) (  1,  6,  8) (  1,  5,  5) (  1,  6,  5) (  1,  2,  3)
    -0.1479E-01   -0.1030E-01   -0.6819E-02   -0.2836E-02   -0.8147E-03
  (  1,  7,  8) (  1,  6,  5) (  1,  7,  5) (  1,  6,  5) (  1,  7,  5)


 NO OUTPUT CONTROL FOR STRESS PERIOD    1   TIME STEP  32
 
 SOLVING FOR HEAD 
    11 ITERATIONS FOR TIME STEP  33 IN STRESS PERIOD    1

 MAXIMUM HEAD CHANGE FOR EACH ITERATION:

    HEAD CHANGE   HEAD CHANGE   HEAD CHANGE   HEAD CHANGE   HEAD CHANGE
  LAYER,ROW,COL LAYER,ROW,COL LAYER,ROW,COL LAYER,ROW,COL LAYER,ROW,COL
 ----------------------------------------------------------------------
     -2.642        -1.176       -0.8829       -0.3707       -0.1158    
  (  1,  7,  1) (  1,  6,  8) (  1,  5,  5) (  1,  6,  5) (  1,  2,  3)
    -0.1701E-01   -0.1164E-01   -0.8061E-02   -0.3499E-02   -0.1025E-02
  (  1,  6,  9) (  1,  6,  5) (  1,  7,  5) (  1,  6,  5) (  1,  7,  5)
    -0.3079E-03
  (  1,  2,  3)


 OUTPUT CONTROL FOR STRESS PERIOD    1   TIME STEP  33
    PRINT BUDGET
    PRINT HEAD FOR ALL LAYERS
    SAVE BUDGET

            WELLS   PERIOD    1   STEP  33
 WELL      1   LAYER   1   ROW     6   COL     4   RATE    -10.0000    
 WELL      2   LAYER   1   ROW     6   COL     5   RATE    -10.0000    
 WELL      3   LAYER   1   ROW     7   COL     4   RATE    -10.0000    
 WELL      4   LAYER   1   ROW     7   COL     5   RATE    -10.0000    
 WELL      5   LAYER   1   ROW     8   COL     4   RATE    -10.0000    
 WELL      6   LAYER   1   ROW     8   COL     5   RATE    -10.0000    
 WELL      7   LAYER   1   ROW     9   COL     4   RATE    -10.0000    
 WELL      8   LAYER   1   ROW     9   COL     5   RATE    -10.0000    
 WELL      9   LAYER   1   ROW    10   COL     4   RATE    -10.0000    
 WELL     10   LAYER   1   ROW    10   COL     5   RATE    -10.0000    
 UBUDSV SAVING "              ET" ON UNIT 59 AT TIME STEP 33, STRESS PERIOD    1

  HEAD DEP BOUNDS   PERIOD    1   STEP  33
 BOUNDARY      1   LAYER   1   ROW    13   COL     1   RATE   -0.229498    
 BOUNDARY      2   LAYER   1   ROW    14   COL     9   RATE    0.217007    



   STREAM LEAKAGE   PERIOD    1   STEP  33

 LAYER ROW COL. STREAM  RCH.  FLOW INTO    FLOW TO  FLOW OUT OF  OVRLND.   DIRECT    STREAM    STREAM    STREAM    STREAM  STREAMBED  STREAMBED
                SEG.NO.  NO.  STRM. RCH.   AQUIFER   STRM. RCH.  RUNOFF    PRECIP      ET       HEAD      DEPTH     WIDTH  CONDCTNC.   GRADIENT

   1    1    1     1     1    2.500E+01   2.401E+00  2.260E+01  0.00E+00  0.00E+00  0.00E+00  1.09E+03  1.16E+00  1.28E+01  5.77E-01  1.39E+00
   1    2    2     1     2    2.260E+01   3.511E+00  1.909E+01  0.00E+00  0.00E+00  0.00E+00  1.09E+03  1.11E+00  1.22E+01  8.53E-01  1.37E+00
   1    3    3     1     3    1.909E+01   2.753E+00  1.634E+01  0.00E+00  0.00E+00  0.00E+00  1.08E+03  1.06E+00  1.13E+01  6.78E-01  1.35E+00
   1    3    4     1     4    1.634E+01   2.331E+00  1.400E+01  0.00E+00  0.00E+00  0.00E+00  1.08E+03  1.02E+00  1.05E+01  5.80E-01  1.34E+00
   1    4    5     2     1    4.004E+00   2.588E+00  1.416E+00  0.00E+00  0.00E+00  0.00E+00  1.07E+03  3.18E-01  1.20E+01  7.80E-01  1.11E+00
   1    5    6     2     2    1.416E+00   1.416E+00  0.000E+00  0.00E+00  0.00E+00  0.00E+00  1.07E+03  1.42E-01  1.20E+01  6.00E-01  1.02E+00
   1    6    6     2     3    0.000E+00   0.000E+00  0.000E+00  0.00E+00  0.00E+00  0.00E+00  1.06E+03  0.00E+00  1.20E+01  6.00E-01  1.00E+00
   1    7    6     2     4    0.000E+00   0.000E+00  0.000E+00  0.00E+00  0.00E+00  0.00E+00  1.06E+03  0.00E+00  1.20E+01  6.00E-01  1.00E+00
   1    8    6     2     5    0.000E+00   0.000E+00  0.000E+00  0.00E+00  0.00E+00  0.00E+00  1.05E+03  0.00E+00  1.20E+01  6.00E-01  1.00E+00
   1    3    5     3     1    1.000E+01   2.825E+00  7.175E+00  0.00E+00  0.00E+00  0.00E+00  1.08E+03  1.91E+00  9.64E+00  7.23E-01  1.95E+00
   1    3    6     3     2    7.175E+00   2.491E+00  4.684E+00  0.00E+00  0.00E+00  0.00E+00  1.07E+03  1.73E+00  8.91E+00  6.68E-01  1.86E+00
   1    3    7     3     3    4.684E+00   1.972E+00  2.712E+00  0.00E+00  0.00E+00  0.00E+00  1.07E+03  1.55E+00  8.22E+00  5.55E-01  1.78E+00
   1    4    8     3     4    2.712E+00   2.257E+00  4.558E-01  0.00E+00  0.00E+00  0.00E+00  1.07E+03  1.36E+00  7.45E+00  6.71E-01  1.68E+00
   1    5    8     3     5    4.558E-01   4.558E-01  0.000E+00  0.00E+00  0.00E+00  0.00E+00  1.06E+03  1.16E+00  6.65E+00  4.99E-01  1.58E+00
   1    6    8     3     6    0.000E+00   0.000E+00  0.000E+00  0.00E+00  0.00E+00  0.00E+00  1.06E+03  0.00E+00  6.15E+00  1.84E-01  1.00E+00
   1    5   10     4     1    1.000E+01   9.052E-01  9.095E+00  0.00E+00  0.00E+00  0.00E+00  1.08E+03  6.21E-01  1.00E+01  2.50E-01  1.21E+00
   1    5    9     4     2    9.095E+00   1.784E+00  7.311E+00  0.00E+00  0.00E+00  0.00E+00  1.07E+03  5.67E-01  1.00E+01  5.00E-01  1.19E+00
   1    6    8     4     3    7.311E+00   1.226E+00  6.086E+00  0.00E+00  0.00E+00  0.00E+00  1.06E+03  5.02E-01  1.00E+01  3.50E-01  1.17E+00
   1    6    8     5     1    6.086E+00   1.472E+00  4.614E+00  0.00E+00  0.00E+00  0.00E+00  1.06E+03  5.40E-01  1.04E+01  4.16E-01  1.18E+00
   1    7    7     5     2    4.614E+00   1.490E+00  3.124E+00  0.00E+00  0.00E+00  0.00E+00  1.05E+03  4.82E-01  8.56E+00  4.28E-01  1.16E+00
   1    8    7     5     3    3.124E+00   8.286E-01  2.296E+00  0.00E+00  0.00E+00  0.00E+00  1.05E+03  4.25E-01  6.91E+00  2.42E-01  1.14E+00
   1    8    6     5     4    2.296E+00   4.945E-01  1.801E+00  0.00E+00  0.00E+00  0.00E+00  1.05E+03  3.86E-01  5.84E+00  1.46E-01  1.13E+00
   1    9    6     6     1    1.801E+00   1.801E+00  0.000E+00  0.00E+00  0.00E+00  0.00E+00  1.04E+03  1.66E-01  1.20E+01  6.00E-01  1.03E+00
   1   10    7     6     2    0.000E+00   0.000E+00  0.000E+00  0.00E+00  0.00E+00  0.00E+00  1.04E+03  0.00E+00  1.20E+01  6.00E-01  1.00E+00
   1   11    7     6     3    0.000E+00   0.000E+00  0.000E+00  0.00E+00  0.00E+00  0.00E+00  1.03E+03  0.00E+00  1.20E+01  6.00E-01  1.00E+00
   1   12    7     6     4    0.000E+00   0.000E+00  0.000E+00  0.00E+00  0.00E+00  0.00E+00  1.03E+03  0.00E+00  1.20E+01  6.00E-01  1.00E+00
   1   13    7     6     5    0.000E+00  -4.387E-01  4.387E-01  0.00E+00  0.00E+00  0.00E+00  1.03E+03  7.12E-02  1.20E+01  2.40E-01 -6.09E-01
   1   14    9     7     1    1.500E+02   3.210E+00  1.468E+02  0.00E+00  0.00E+00  0.00E+00  1.04E+03  2.28E+00  5.53E+01  5.59E+00  1.91E-01
   1   13    8     7     2    1.468E+02   5.823E+00  1.410E+02  0.00E+00  0.00E+00  0.00E+00  1.03E+03  2.26E+00  5.52E+01  6.14E+00  3.16E-01
   1   13    7     7     3    1.410E+02   1.015E+01  1.308E+02  0.00E+00  0.00E+00  0.00E+00  1.03E+03  2.22E+00  5.50E+01  5.56E+00  6.09E-01
   1   13    6     8     1    1.313E+02   9.901E+00  1.214E+02  0.00E+00  0.00E+00  0.00E+00  1.02E+03  2.64E+00  3.83E+01  3.90E+00  8.46E-01
   1   13    5     8     2    1.214E+02   8.632E+00  1.127E+02  0.00E+00  0.00E+00  0.00E+00  1.02E+03  2.57E+00  3.72E+01  3.79E+00  7.59E-01
   1   13    4     8     3    1.127E+02   5.753E+00  1.070E+02  0.00E+00  0.00E+00  0.00E+00  1.01E+03  2.51E+00  3.63E+01  3.70E+00  5.18E-01
   1   13    3     8     4    1.070E+02   2.385E+00  1.046E+02  0.00E+00  0.00E+00  0.00E+00  1.01E+03  2.47E+00  3.58E+01  3.65E+00  2.18E-01
   1   13    2     8     5    1.046E+02   2.696E-01  1.043E+02  0.00E+00  0.00E+00  0.00E+00  9.99E+02  2.46E+00  3.57E+01  3.63E+00  2.47E-02
   1   13    1     8     6    1.043E+02   6.334E-01  1.037E+02  0.00E+00  0.00E+00  0.00E+00  9.94E+02  2.46E+00  3.56E+01  2.18E+00  9.70E-02



1
              HEAD IN LAYER   1 AT END OF TIME STEP  33 IN STRESS PERIOD    1
  ---------------------------------------------------------------------------

           1       2       3       4       5       6       7       8       9      10
 ...................................................................................
   1  1089.24 1077.16 6999.00 6999.00 6999.00 6999.00 6999.00 6999.00 6999.00 6999.00
   2  1078.75 1066.20 1051.45 6999.00 6999.00 1043.62 1046.60 1048.31 6999.00 6999.00
   3  6999.00 1048.36 1039.34 1030.47 1030.56 1034.44 1040.55 1041.55 6999.00 6999.00
   4  1032.99 1031.50 1025.59 1017.45 1015.29 1015.34 1022.05 1033.28 1032.18 6999.00
   5  1025.08 1017.80 1010.04 1003.93 1004.34 1008.05 1011.52 1017.49 1025.86 1032.41
   6  1015.94 1006.43  996.21  987.71  990.45  999.34 1006.08 1012.51 1021.03 1031.39
   7  1009.67  997.57  986.50  977.64  981.85  992.71 1001.04 1007.08 1015.88 6999.00
   8  6999.00  989.86  980.73  972.31  977.53  988.83  995.96 1003.85 1013.23 6999.00
   9  6999.00  987.56  980.27  972.94  978.28  989.03  994.81 1002.45 1012.24 6999.00
  10  6999.00  990.30  985.43  979.78  983.98  992.77  997.96 1005.15 1014.54 1022.40
  11  6999.00  995.90  995.36  993.39  996.02 1000.87 1004.96 1011.39 1018.19 6999.00
  12   996.84  999.58 1002.52 1003.05 1006.28 1010.68 1014.85 1022.28 1027.25 6999.00
  13   994.04  999.26 1004.94 1010.33 1015.92 1021.98 1027.81 1033.81 1035.35 6999.00
  14  6999.00 1002.97 1007.28 1011.55 1016.62 1022.13 1028.32 1034.75 1039.29 6999.00
  15  6999.00 6999.00 1010.42 1013.39 1017.34 1020.72 6999.00 6999.00 6999.00 6999.00
1
  VOLUMETRIC BUDGET FOR ENTIRE MODEL AT END OF TIME STEP 33 IN STRESS PERIOD   1
  ------------------------------------------------------------------------------

     CUMULATIVE VOLUMES      L**3       RATES FOR THIS TIME STEP      L**3/T
     ------------------                 ------------------------

           IN:                                      IN:
           ---                                      ---
             STORAGE = 14859520000.0000               STORAGE =          32.5327
       CONSTANT HEAD =           0.0000         CONSTANT HEAD =           0.0000
               WELLS =           0.0000                 WELLS =           0.0000
                  ET =           0.0000                    ET =           0.0000
     HEAD DEP BOUNDS =    65137968.0000       HEAD DEP BOUNDS =           0.2170
            RECHARGE =   540457536.0000              RECHARGE =           1.7937
      STREAM LEAKAGE = 20531331100.0000        STREAM LEAKAGE =          81.7548

            TOTAL IN = 35996446700.0000              TOTAL IN =         116.2982

          OUT:                                     OUT:
          ----                                     ----
             STORAGE =     1748962.5000               STORAGE =           0.0000
       CONSTANT HEAD =           0.0000         CONSTANT HEAD =           0.0000
               WELLS = 30130036700.0000                 WELLS =         100.0000
                  ET =  5328658940.0000                    ET =          15.6311
     HEAD DEP BOUNDS =    71183480.0000       HEAD DEP BOUNDS =           0.2295
            RECHARGE =           0.0000              RECHARGE =           0.0000
      STREAM LEAKAGE =   465825984.0000        STREAM LEAKAGE =           0.4387

           TOTAL OUT = 35997454300.0000             TOTAL OUT =         116.2993

            IN - OUT =    -1007530.5000              IN - OUT =      -1.0643E-03

 PERCENT DISCREPANCY =           0.00     PERCENT DISCREPANCY =           0.00






          TIME SUMMARY AT END OF TIME STEP  33 IN STRESS PERIOD    1
                    SECONDS     MINUTES      HOURS       DAYS        YEARS
                    -----------------------------------------------------------
   TIME STEP LENGTH 2.86234E+07 4.77056E+05  7950.9      331.29     0.90702    
 STRESS PERIOD TIME 3.01300E+08 5.02167E+06  83695.      3487.3      9.5476    
         TOTAL TIME 3.01300E+08 5.02167E+06  83695.      3487.3      9.5476    
1
 
 SOLVING FOR HEAD 
    11 ITERATIONS FOR TIME STEP  34 IN STRESS PERIOD    1

 MAXIMUM HEAD CHANGE FOR EACH ITERATION:

    HEAD CHANGE   HEAD CHANGE   HEAD CHANGE   HEAD CHANGE   HEAD CHANGE
  LAYER,ROW,COL LAYER,ROW,COL LAYER,ROW,COL LAYER,ROW,COL LAYER,ROW,COL
 ----------------------------------------------------------------------
     -2.686        -1.194       -0.9336       -0.4068       -0.1326    
  (  1,  7,  1) (  1,  6,  8) (  1,  5,  5) (  1,  6,  5) (  1,  2,  3)
    -0.2051E-01   -0.1345E-01   -0.9619E-02   -0.4371E-02   -0.1309E-02
  (  1,  6,  9) (  1,  3,  4) (  1,  7,  5) (  1,  6,  5) (  1,  7,  5)
    -0.3953E-03
  (  1,  2,  3)


 NO OUTPUT CONTROL FOR STRESS PERIOD    1   TIME STEP  34
 
 SOLVING FOR HEAD 
    11 ITERATIONS FOR TIME STEP  35 IN STRESS PERIOD    1

 MAXIMUM HEAD CHANGE FOR EACH ITERATION:

    HEAD CHANGE   HEAD CHANGE   HEAD CHANGE   HEAD CHANGE   HEAD CHANGE
  LAYER,ROW,COL LAYER,ROW,COL LAYER,ROW,COL LAYER,ROW,COL LAYER,ROW,COL
 ----------------------------------------------------------------------
     -2.716        -1.203       -0.9842       -0.4437       -0.1533    
  (  1,  7,  1) (  1,  6,  8) (  1,  5,  5) (  1,  6,  5) (  1,  2,  3)
    -0.2460E-01   -0.1551E-01   -0.1137E-01   -0.5411E-02   -0.1658E-02
  (  1,  6,  9) (  1,  3,  4) (  1,  7,  5) (  1,  6,  5) (  1,  7,  5)
    -0.5050E-03
  (  1,  2,  3)


 OUTPUT CONTROL FOR STRESS PERIOD    1   TIME STEP  35
    PRINT BUDGET
    PRINT HEAD FOR ALL LAYERS
    SAVE BUDGET

            WELLS   PERIOD    1   STEP  35
 WELL      1   LAYER   1   ROW     6   COL     4   RATE    -10.0000    
 WELL      2   LAYER   1   ROW     6   COL     5   RATE    -10.0000    
 WELL      3   LAYER   1   ROW     7   COL     4   RATE    -10.0000    
 WELL      4   LAYER   1   ROW     7   COL     5   RATE    -10.0000    
 WELL      5   LAYER   1   ROW     8   COL     4   RATE    -10.0000    
 WELL      6   LAYER   1   ROW     8   COL     5   RATE    -10.0000    
 WELL      7   LAYER   1   ROW     9   COL     4   RATE    -10.0000    
 WELL      8   LAYER   1   ROW     9   COL     5   RATE    -10.0000    
 WELL      9   LAYER   1   ROW    10   COL     4   RATE    -10.0000    
 WELL     10   LAYER   1   ROW    10   COL     5   RATE    -10.0000    
 UBUDSV SAVING "              ET" ON UNIT 59 AT TIME STEP 35, STRESS PERIOD    1

  HEAD DEP BOUNDS   PERIOD    1   STEP  35
 BOUNDARY      1   LAYER   1   ROW    13   COL     1   RATE   -0.227615    
 BOUNDARY      2   LAYER   1   ROW    14   COL     9   RATE    0.217262    



   STREAM LEAKAGE   PERIOD    1   STEP  35

 LAYER ROW COL. STREAM  RCH.  FLOW INTO    FLOW TO  FLOW OUT OF  OVRLND.   DIRECT    STREAM    STREAM    STREAM    STREAM  STREAMBED  STREAMBED
                SEG.NO.  NO.  STRM. RCH.   AQUIFER   STRM. RCH.  RUNOFF    PRECIP      ET       HEAD      DEPTH     WIDTH  CONDCTNC.   GRADIENT

   1    1    1     1     1    2.500E+01   2.401E+00  2.260E+01  0.00E+00  0.00E+00  0.00E+00  1.09E+03  1.16E+00  1.28E+01  5.77E-01  1.39E+00
   1    2    2     1     2    2.260E+01   3.511E+00  1.909E+01  0.00E+00  0.00E+00  0.00E+00  1.09E+03  1.11E+00  1.22E+01  8.53E-01  1.37E+00
   1    3    3     1     3    1.909E+01   2.753E+00  1.634E+01  0.00E+00  0.00E+00  0.00E+00  1.08E+03  1.06E+00  1.13E+01  6.78E-01  1.35E+00
   1    3    4     1     4    1.634E+01   2.331E+00  1.400E+01  0.00E+00  0.00E+00  0.00E+00  1.08E+03  1.02E+00  1.05E+01  5.80E-01  1.34E+00
   1    4    5     2     1    4.004E+00   2.588E+00  1.416E+00  0.00E+00  0.00E+00  0.00E+00  1.07E+03  3.18E-01  1.20E+01  7.80E-01  1.11E+00
   1    5    6     2     2    1.416E+00   1.416E+00  0.000E+00  0.00E+00  0.00E+00  0.00E+00  1.07E+03  1.42E-01  1.20E+01  6.00E-01  1.02E+00
   1    6    6     2     3    0.000E+00   0.000E+00  0.000E+00  0.00E+00  0.00E+00  0.00E+00  1.06E+03  0.00E+00  1.20E+01  6.00E-01  1.00E+00
   1    7    6     2     4    0.000E+00   0.000E+00  0.000E+00  0.00E+00  0.00E+00  0.00E+00  1.06E+03  0.00E+00  1.20E+01  6.00E-01  1.00E+00
   1    8    6     2     5    0.000E+00   0.000E+00  0.000E+00  0.00E+00  0.00E+00  0.00E+00  1.05E+03  0.00E+00  1.20E+01  6.00E-01  1.00E+00
   1    3    5     3     1    1.000E+01   2.825E+00  7.175E+00  0.00E+00  0.00E+00  0.00E+00  1.08E+03  1.91E+00  9.64E+00  7.23E-01  1.95E+00
   1    3    6     3     2    7.175E+00   2.491E+00  4.684E+00  0.00E+00  0.00E+00  0.00E+00  1.07E+03  1.73E+00  8.91E+00  6.68E-01  1.86E+00
   1    3    7     3     3    4.684E+00   1.972E+00  2.712E+00  0.00E+00  0.00E+00  0.00E+00  1.07E+03  1.55E+00  8.22E+00  5.55E-01  1.78E+00
   1    4    8     3     4    2.712E+00   2.257E+00  4.558E-01  0.00E+00  0.00E+00  0.00E+00  1.07E+03  1.36E+00  7.45E+00  6.71E-01  1.68E+00
   1    5    8     3     5    4.558E-01   4.558E-01  0.000E+00  0.00E+00  0.00E+00  0.00E+00  1.06E+03  1.16E+00  6.65E+00  4.99E-01  1.58E+00
   1    6    8     3     6    0.000E+00   0.000E+00  0.000E+00  0.00E+00  0.00E+00  0.00E+00  1.06E+03  0.00E+00  6.15E+00  1.84E-01  1.00E+00
   1    5   10     4     1    1.000E+01   9.052E-01  9.095E+00  0.00E+00  0.00E+00  0.00E+00  1.08E+03  6.21E-01  1.00E+01  2.50E-01  1.21E+00
   1    5    9     4     2    9.095E+00   1.784E+00  7.311E+00  0.00E+00  0.00E+00  0.00E+00  1.07E+03  5.67E-01  1.00E+01  5.00E-01  1.19E+00
   1    6    8     4     3    7.311E+00   1.226E+00  6.086E+00  0.00E+00  0.00E+00  0.00E+00  1.06E+03  5.02E-01  1.00E+01  3.50E-01  1.17E+00
   1    6    8     5     1    6.086E+00   1.472E+00  4.614E+00  0.00E+00  0.00E+00  0.00E+00  1.06E+03  5.40E-01  1.04E+01  4.16E-01  1.18E+00
   1    7    7     5     2    4.614E+00   1.490E+00  3.124E+00  0.00E+00  0.00E+00  0.00E+00  1.05E+03  4.82E-01  8.56E+00  4.28E-01  1.16E+00
   1    8    7     5     3    3.124E+00   8.286E-01  2.296E+00  0.00E+00  0.00E+00  0.00E+00  1.05E+03  4.25E-01  6.91E+00  2.42E-01  1.14E+00
   1    8    6     5     4    2.296E+00   4.945E-01  1.801E+00  0.00E+00  0.00E+00  0.00E+00  1.05E+03  3.86E-01  5.84E+00  1.46E-01  1.13E+00
   1    9    6     6     1    1.801E+00   1.801E+00  0.000E+00  0.00E+00  0.00E+00  0.00E+00  1.04E+03  1.66E-01  1.20E+01  6.00E-01  1.03E+00
   1   10    7     6     2    0.000E+00   0.000E+00  0.000E+00  0.00E+00  0.00E+00  0.00E+00  1.04E+03  0.00E+00  1.20E+01  6.00E-01  1.00E+00
   1   11    7     6     3    0.000E+00   0.000E+00  0.000E+00  0.00E+00  0.00E+00  0.00E+00  1.03E+03  0.00E+00  1.20E+01  6.00E-01  1.00E+00
   1   12    7     6     4    0.000E+00   0.000E+00  0.000E+00  0.00E+00  0.00E+00  0.00E+00  1.03E+03  0.00E+00  1.20E+01  6.00E-01  1.00E+00
   1   13    7     6     5    0.000E+00  -4.084E-01  4.084E-01  0.00E+00  0.00E+00  0.00E+00  1.03E+03  6.82E-02  1.20E+01  2.40E-01 -5.67E-01
   1   14    9     7     1    1.500E+02   3.246E+00  1.468E+02  0.00E+00  0.00E+00  0.00E+00  1.04E+03  2.28E+00  5.53E+01  5.59E+00  1.94E-01
   1   13    8     7     2    1.468E+02   6.051E+00  1.407E+02  0.00E+00  0.00E+00  0.00E+00  1.03E+03  2.26E+00  5.52E+01  6.14E+00  3.29E-01
   1   13    7     7     3    1.407E+02   1.085E+01  1.299E+02  0.00E+00  0.00E+00  0.00E+00  1.03E+03  2.21E+00  5.50E+01  5.56E+00  6.51E-01
   1   13    6     8     1    1.303E+02   1.067E+01  1.196E+02  0.00E+00  0.00E+00  0.00E+00  1.02E+03  2.63E+00  3.81E+01  3.89E+00  9.15E-01
   1   13    5     8     2    1.196E+02   9.468E+00  1.101E+02  0.00E+00  0.00E+00  0.00E+00  1.02E+03  2.55E+00  3.70E+01  3.77E+00  8.38E-01
   1   13    4     8     3    1.101E+02   6.450E+00  1.037E+02  0.00E+00  0.00E+00  0.00E+00  1.01E+03  2.48E+00  3.60E+01  3.67E+00  5.87E-01
   1   13    3     8     4    1.037E+02   2.831E+00  1.008E+02  0.00E+00  0.00E+00  0.00E+00  1.01E+03  2.44E+00  3.54E+01  3.61E+00  2.62E-01
   1   13    2     8     5    1.008E+02   3.935E-01  1.005E+02  0.00E+00  0.00E+00  0.00E+00  9.99E+02  2.43E+00  3.52E+01  3.58E+00  3.66E-02
   1   13    1     8     6    1.005E+02   6.562E-01  9.979E+01  0.00E+00  0.00E+00  0.00E+00  9.94E+02  2.42E+00  3.51E+01  2.15E+00  1.02E-01



1
              HEAD IN LAYER   1 AT END OF TIME STEP  35 IN STRESS PERIOD    1
  ---------------------------------------------------------------------------

           1       2       3       4       5       6       7       8       9      10
 ...................................................................................
   1  1086.11 1072.95 6999.00 6999.00 6999.00 6999.00 6999.00 6999.00 6999.00 6999.00
   2  1074.74 1060.83 1045.20 6999.00 6999.00 1036.40 1039.39 1041.09 6999.00 6999.00
   3  6999.00 1041.95 1032.51 1023.45 1023.49 1027.29 1033.36 1034.26 6999.00 6999.00
   4  1025.50 1024.27 1018.43 1010.27 1008.09 1008.11 1014.80 1026.18 1024.86 6999.00
   5  1017.39 1010.20 1002.68  996.72  997.16 1000.90 1004.35 1010.26 1018.55 1025.23
   6  1008.09  998.76  988.89  980.56  983.40  992.39  999.11 1005.47 1013.73 1024.07
   7  1001.83  990.15  979.51  970.86  975.20  986.19  994.47 1000.25 1008.97 6999.00
   8  6999.00  983.29  974.46  966.22  971.59  983.01  990.12  997.62 1006.91 6999.00
   9  6999.00  982.14  975.07  967.86  973.31  984.15  989.94  997.34 1007.02 6999.00
  10  6999.00  986.29  981.54  975.89  980.09  988.93  994.15 1001.26 1010.53 1018.13
  11  6999.00  993.47  993.03  990.77  993.33  998.18 1002.29 1008.77 1015.56 6999.00
  12   996.39  998.69 1001.49 1001.68 1004.82 1009.20 1013.43 1021.12 1026.17 6999.00
  13   993.99  999.19 1004.78 1010.10 1015.66 1021.76 1027.68 1033.77 1035.24 6999.00
  14  6999.00 1002.83 1007.07 1011.31 1016.36 1021.91 1028.19 1034.71 1039.28 6999.00
  15  6999.00 6999.00 1010.16 1013.11 1017.05 1020.45 6999.00 6999.00 6999.00 6999.00
1
  VOLUMETRIC BUDGET FOR ENTIRE MODEL AT END OF TIME STEP 35 IN STRESS PERIOD   1
  ------------------------------------------------------------------------------

     CUMULATIVE VOLUMES      L**3       RATES FOR THIS TIME STEP      L**3/T
     ------------------                 ------------------------

           IN:                                      IN:
           ---                                      ---
             STORAGE = 16804272100.0000               STORAGE =          28.4365
       CONSTANT HEAD =           0.0000         CONSTANT HEAD =           0.0000
               WELLS =           0.0000                 WELLS =           0.0000
                  ET =           0.0000                    ET =           0.0000
     HEAD DEP BOUNDS =    79499328.0000       HEAD DEP BOUNDS =           0.2173
            RECHARGE =   659060288.0000              RECHARGE =           1.7937
      STREAM LEAKAGE = 26131318800.0000        STREAM LEAKAGE =          85.6134

            TOTAL IN = 43674148900.0000              TOTAL IN =         116.0609

          OUT:                                     OUT:
          ----                                     ----
             STORAGE =     1748962.5000               STORAGE =           0.0000
       CONSTANT HEAD =           0.0000         CONSTANT HEAD =           0.0000
               WELLS = 36742037500.0000                 WELLS =         100.0000
                  ET =  6351991810.0000                    ET =          15.4285
     HEAD DEP BOUNDS =    86263264.0000       HEAD DEP BOUNDS =           0.2276
            RECHARGE =           0.0000              RECHARGE =           0.0000
      STREAM LEAKAGE =   493307584.0000        STREAM LEAKAGE =           0.4084

           TOTAL OUT = 43675349000.0000             TOTAL OUT =         116.0645

            IN - OUT =    -1198594.5000              IN - OUT =      -3.5759E-03

 PERCENT DISCREPANCY =           0.00     PERCENT DISCREPANCY =           0.00






          TIME SUMMARY AT END OF TIME STEP  35 IN STRESS PERIOD    1
                    SECONDS     MINUTES      HOURS       DAYS        YEARS
                    -----------------------------------------------------------
   TIME STEP LENGTH 3.46343E+07 5.77238E+05  9620.6      400.86      1.0975    
 STRESS PERIOD TIME 3.67420E+08 6.12367E+06 1.02061E+05  4252.6      11.643    
         TOTAL TIME 3.67420E+08 6.12367E+06 1.02061E+05  4252.6      11.643    
1
 
 SOLVING FOR HEAD 
    11 ITERATIONS FOR TIME STEP  36 IN STRESS PERIOD    1

 MAXIMUM HEAD CHANGE FOR EACH ITERATION:

    HEAD CHANGE   HEAD CHANGE   HEAD CHANGE   HEAD CHANGE   HEAD CHANGE
  LAYER,ROW,COL LAYER,ROW,COL LAYER,ROW,COL LAYER,ROW,COL LAYER,ROW,COL
 ----------------------------------------------------------------------
     -2.732        -1.203        -1.031       -0.4806       -0.1758    
  (  1,  7,  1) (  1,  6,  8) (  1,  5,  5) (  1,  6,  5) (  1,  2,  3)
    -0.2936E-01   -0.1776E-01   -0.1333E-01   -0.6651E-02   -0.2088E-02
  (  1,  6,  9) (  1,  3,  4) (  1,  7,  5) (  1,  6,  5) (  1,  7,  5)
    -0.6394E-03
  (  1,  2,  3)


 NO OUTPUT CONTROL FOR STRESS PERIOD    1   TIME STEP  36
 
 SOLVING FOR HEAD 
    11 ITERATIONS FOR TIME STEP  37 IN STRESS PERIOD    1

 MAXIMUM HEAD CHANGE FOR EACH ITERATION:

    HEAD CHANGE   HEAD CHANGE   HEAD CHANGE   HEAD CHANGE   HEAD CHANGE
  LAYER,ROW,COL LAYER,ROW,COL LAYER,ROW,COL LAYER,ROW,COL LAYER,ROW,COL
 ----------------------------------------------------------------------
     -2.733        -1.195        -1.072       -0.5167       -0.1997    
  (  1,  7,  1) (  1,  6,  8) (  1,  5,  5) (  1,  6,  5) (  1,  2,  3)
    -0.3483E-01   -0.2015E-01   -0.1551E-01   -0.8110E-02   -0.2602E-02
  (  1,  6,  9) (  1,  3,  4) (  1,  7,  5) (  1,  6,  5) (  1,  7,  5)
    -0.8034E-03
  (  1,  2,  3)


 NO OUTPUT CONTROL FOR STRESS PERIOD    1   TIME STEP  37
 
 SOLVING FOR HEAD 
    12 ITERATIONS FOR TIME STEP  38 IN STRESS PERIOD    1

 MAXIMUM HEAD CHANGE FOR EACH ITERATION:

    HEAD CHANGE   HEAD CHANGE   HEAD CHANGE   HEAD CHANGE   HEAD CHANGE
  LAYER,ROW,COL LAYER,ROW,COL LAYER,ROW,COL LAYER,ROW,COL LAYER,ROW,COL
 ----------------------------------------------------------------------
     -2.721        -1.178        -1.106       -0.5509       -0.2245    
  (  1,  7,  1) (  1,  6,  8) (  1,  5,  5) (  1,  6,  5) (  1,  2,  3)
    -0.4106E-01   -0.2263E-01   -0.1790E-01   -0.9805E-02   -0.3245E-02
  (  1,  6,  9) (  1,  3,  4) (  1,  7,  5) (  1,  6,  5) (  1,  7,  4)
    -0.1002E-02   -0.3712E-03
  (  1,  2,  3) (  1,  4,  3)


 NO OUTPUT CONTROL FOR STRESS PERIOD    1   TIME STEP  38
 
 SOLVING FOR HEAD 
    12 ITERATIONS FOR TIME STEP  39 IN STRESS PERIOD    1

 MAXIMUM HEAD CHANGE FOR EACH ITERATION:

    HEAD CHANGE   HEAD CHANGE   HEAD CHANGE   HEAD CHANGE   HEAD CHANGE
  LAYER,ROW,COL LAYER,ROW,COL LAYER,ROW,COL LAYER,ROW,COL LAYER,ROW,COL
 ----------------------------------------------------------------------
     -2.699        -1.152        -1.131       -0.5822       -0.2497    
  (  1,  4,  1) (  1,  6,  8) (  1,  5,  5) (  1,  6,  5) (  1,  2,  3)
    -0.4808E-01   -0.2517E-01   -0.2047E-01   -0.1175E-01   -0.4014E-02
  (  1,  6,  9) (  1,  3,  4) (  1,  7,  5) (  1,  6,  5) (  1,  7,  4)
    -0.1237E-02   -0.4606E-03
  (  1,  2,  3) (  1,  4,  3)


 NO OUTPUT CONTROL FOR STRESS PERIOD    1   TIME STEP  39
 
 SOLVING FOR HEAD 
    12 ITERATIONS FOR TIME STEP  40 IN STRESS PERIOD    1

 MAXIMUM HEAD CHANGE FOR EACH ITERATION:

    HEAD CHANGE   HEAD CHANGE   HEAD CHANGE   HEAD CHANGE   HEAD CHANGE
  LAYER,ROW,COL LAYER,ROW,COL LAYER,ROW,COL LAYER,ROW,COL LAYER,ROW,COL
 ----------------------------------------------------------------------
     -2.670        -1.127        -1.150       -0.6094       -0.2746    
  (  1,  4,  1) (  1,  6,  9) (  1,  3,  4) (  1,  6,  5) (  1,  2,  3)
    -0.5588E-01   -0.2768E-01   -0.2318E-01   -0.1393E-01   -0.4913E-02
  (  1,  6,  9) (  1,  3,  4) (  1,  7,  5) (  1,  6,  5) (  1,  7,  4)
    -0.1514E-02   -0.5642E-03
  (  1,  2,  3) (  1,  4,  3)


 OUTPUT CONTROL FOR STRESS PERIOD    1   TIME STEP  40
    PRINT BUDGET
    PRINT HEAD FOR ALL LAYERS
    SAVE BUDGET

            WELLS   PERIOD    1   STEP  40
 WELL      1   LAYER   1   ROW     6   COL     4   RATE    -10.0000    
 WELL      2   LAYER   1   ROW     6   COL     5   RATE    -10.0000    
 WELL      3   LAYER   1   ROW     7   COL     4   RATE    -10.0000    
 WELL      4   LAYER   1   ROW     7   COL     5   RATE    -10.0000    
 WELL      5   LAYER   1   ROW     8   COL     4   RATE    -10.0000    
 WELL      6   LAYER   1   ROW     8   COL     5   RATE    -10.0000    
 WELL      7   LAYER   1   ROW     9   COL     4   RATE    -10.0000    
 WELL      8   LAYER   1   ROW     9   COL     5   RATE    -10.0000    
 WELL      9   LAYER   1   ROW    10   COL     4   RATE    -10.0000    
 WELL     10   LAYER   1   ROW    10   COL     5   RATE    -10.0000    
 UBUDSV SAVING "              ET" ON UNIT 59 AT TIME STEP 40, STRESS PERIOD    1

  HEAD DEP BOUNDS   PERIOD    1   STEP  40
 BOUNDARY      1   LAYER   1   ROW    13   COL     1   RATE   -0.222860    
 BOUNDARY      2   LAYER   1   ROW    14   COL     9   RATE    0.217885    



   STREAM LEAKAGE   PERIOD    1   STEP  40

 LAYER ROW COL. STREAM  RCH.  FLOW INTO    FLOW TO  FLOW OUT OF  OVRLND.   DIRECT    STREAM    STREAM    STREAM    STREAM  STREAMBED  STREAMBED
                SEG.NO.  NO.  STRM. RCH.   AQUIFER   STRM. RCH.  RUNOFF    PRECIP      ET       HEAD      DEPTH     WIDTH  CONDCTNC.   GRADIENT

   1    1    1     1     1    2.500E+01   2.401E+00  2.260E+01  0.00E+00  0.00E+00  0.00E+00  1.09E+03  1.16E+00  1.28E+01  5.77E-01  1.39E+00
   1    2    2     1     2    2.260E+01   3.511E+00  1.909E+01  0.00E+00  0.00E+00  0.00E+00  1.09E+03  1.11E+00  1.22E+01  8.53E-01  1.37E+00
   1    3    3     1     3    1.909E+01   2.753E+00  1.634E+01  0.00E+00  0.00E+00  0.00E+00  1.08E+03  1.06E+00  1.13E+01  6.78E-01  1.35E+00
   1    3    4     1     4    1.634E+01   2.331E+00  1.400E+01  0.00E+00  0.00E+00  0.00E+00  1.08E+03  1.02E+00  1.05E+01  5.80E-01  1.34E+00
   1    4    5     2     1    4.004E+00   2.588E+00  1.416E+00  0.00E+00  0.00E+00  0.00E+00  1.07E+03  3.18E-01  1.20E+01  7.80E-01  1.11E+00
   1    5    6     2     2    1.416E+00   1.416E+00  0.000E+00  0.00E+00  0.00E+00  0.00E+00  1.07E+03  1.42E-01  1.20E+01  6.00E-01  1.02E+00
   1    6    6     2     3    0.000E+00   0.000E+00  0.000E+00  0.00E+00  0.00E+00  0.00E+00  1.06E+03  0.00E+00  1.20E+01  6.00E-01  1.00E+00
   1    7    6     2     4    0.000E+00   0.000E+00  0.000E+00  0.00E+00  0.00E+00  0.00E+00  1.06E+03  0.00E+00  1.20E+01  6.00E-01  1.00E+00
   1    8    6     2     5    0.000E+00   0.000E+00  0.000E+00  0.00E+00  0.00E+00  0.00E+00  1.05E+03  0.00E+00  1.20E+01  6.00E-01  1.00E+00
   1    3    5     3     1    1.000E+01   2.825E+00  7.175E+00  0.00E+00  0.00E+00  0.00E+00  1.08E+03  1.91E+00  9.64E+00  7.23E-01  1.95E+00
   1    3    6     3     2    7.175E+00   2.491E+00  4.684E+00  0.00E+00  0.00E+00  0.00E+00  1.07E+03  1.73E+00  8.91E+00  6.68E-01  1.86E+00
   1    3    7     3     3    4.684E+00   1.972E+00  2.712E+00  0.00E+00  0.00E+00  0.00E+00  1.07E+03  1.55E+00  8.22E+00  5.55E-01  1.78E+00
   1    4    8     3     4    2.712E+00   2.257E+00  4.558E-01  0.00E+00  0.00E+00  0.00E+00  1.07E+03  1.36E+00  7.45E+00  6.71E-01  1.68E+00
   1    5    8     3     5    4.558E-01   4.558E-01  0.000E+00  0.00E+00  0.00E+00  0.00E+00  1.06E+03  1.16E+00  6.65E+00  4.99E-01  1.58E+00
   1    6    8     3     6    0.000E+00   0.000E+00  0.000E+00  0.00E+00  0.00E+00  0.00E+00  1.06E+03  0.00E+00  6.15E+00  1.84E-01  1.00E+00
   1    5   10     4     1    1.000E+01   9.052E-01  9.095E+00  0.00E+00  0.00E+00  0.00E+00  1.08E+03  6.21E-01  1.00E+01  2.50E-01  1.21E+00
   1    5    9     4     2    9.095E+00   1.784E+00  7.311E+00  0.00E+00  0.00E+00  0.00E+00  1.07E+03  5.67E-01  1.00E+01  5.00E-01  1.19E+00
   1    6    8     4     3    7.311E+00   1.226E+00  6.086E+00  0.00E+00  0.00E+00  0.00E+00  1.06E+03  5.02E-01  1.00E+01  3.50E-01  1.17E+00
   1    6    8     5     1    6.086E+00   1.472E+00  4.614E+00  0.00E+00  0.00E+00  0.00E+00  1.06E+03  5.40E-01  1.04E+01  4.16E-01  1.18E+00
   1    7    7     5     2    4.614E+00   1.490E+00  3.124E+00  0.00E+00  0.00E+00  0.00E+00  1.05E+03  4.82E-01  8.56E+00  4.28E-01  1.16E+00
   1    8    7     5     3    3.124E+00   8.286E-01  2.296E+00  0.00E+00  0.00E+00  0.00E+00  1.05E+03  4.25E-01  6.91E+00  2.42E-01  1.14E+00
   1    8    6     5     4    2.296E+00   4.945E-01  1.801E+00  0.00E+00  0.00E+00  0.00E+00  1.05E+03  3.86E-01  5.84E+00  1.46E-01  1.13E+00
   1    9    6     6     1    1.801E+00   1.801E+00  0.000E+00  0.00E+00  0.00E+00  0.00E+00  1.04E+03  1.66E-01  1.20E+01  6.00E-01  1.03E+00
   1   10    7     6     2    0.000E+00   0.000E+00  0.000E+00  0.00E+00  0.00E+00  0.00E+00  1.04E+03  0.00E+00  1.20E+01  6.00E-01  1.00E+00
   1   11    7     6     3    0.000E+00   0.000E+00  0.000E+00  0.00E+00  0.00E+00  0.00E+00  1.03E+03  0.00E+00  1.20E+01  6.00E-01  1.00E+00
   1   12    7     6     4    0.000E+00   0.000E+00  0.000E+00  0.00E+00  0.00E+00  0.00E+00  1.03E+03  0.00E+00  1.20E+01  6.00E-01  1.00E+00
   1   13    7     6     5    0.000E+00  -3.340E-01  3.340E-01  0.00E+00  0.00E+00  0.00E+00  1.03E+03  6.05E-02  1.20E+01  2.40E-01 -4.64E-01
   1   14    9     7     1    1.500E+02   3.337E+00  1.467E+02  0.00E+00  0.00E+00  0.00E+00  1.04E+03  2.28E+00  5.53E+01  5.59E+00  1.99E-01
   1   13    8     7     2    1.467E+02   6.599E+00  1.401E+02  0.00E+00  0.00E+00  0.00E+00  1.03E+03  2.26E+00  5.52E+01  6.14E+00  3.59E-01
   1   13    7     7     3    1.401E+02   1.256E+01  1.275E+02  0.00E+00  0.00E+00  0.00E+00  1.03E+03  2.20E+00  5.49E+01  5.55E+00  7.54E-01
   1   13    6     8     1    1.278E+02   1.256E+01  1.153E+02  0.00E+00  0.00E+00  0.00E+00  1.02E+03  2.60E+00  3.77E+01  3.85E+00  1.09E+00
   1   13    5     8     2    1.153E+02   1.151E+01  1.038E+02  0.00E+00  0.00E+00  0.00E+00  1.02E+03  2.50E+00  3.63E+01  3.70E+00  1.04E+00
   1   13    4     8     3    1.038E+02   8.145E+00  9.562E+01  0.00E+00  0.00E+00  0.00E+00  1.01E+03  2.42E+00  3.50E+01  3.57E+00  7.60E-01
   1   13    3     8     4    9.562E+01   3.907E+00  9.172E+01  0.00E+00  0.00E+00  0.00E+00  1.01E+03  2.36E+00  3.42E+01  3.49E+00  3.73E-01
   1   13    2     8     5    9.172E+01   6.900E-01  9.103E+01  0.00E+00  0.00E+00  0.00E+00  9.99E+02  2.34E+00  3.39E+01  3.46E+00  6.65E-02
   1   13    1     8     6    9.103E+01   7.083E-01  9.032E+01  0.00E+00  0.00E+00  0.00E+00  9.94E+02  2.33E+00  3.38E+01  2.07E+00  1.14E-01



1
              HEAD IN LAYER   1 AT END OF TIME STEP  40 IN STRESS PERIOD    1
  ---------------------------------------------------------------------------

           1       2       3       4       5       6       7       8       9      10
 ...................................................................................
   1  1074.24 1058.42 6999.00 6999.00 6999.00 6999.00 6999.00 6999.00 6999.00 6999.00
   2  1060.56 1044.12 1026.94 6999.00 6999.00 1016.90 1019.81 1021.29 6999.00 6999.00
   3  6999.00 1023.47 1013.43 1004.37 1004.62 1008.37 1014.28 1014.72 6999.00 6999.00
   4  1005.20 1004.46  999.02  991.12  989.11  989.12  995.78 1007.68 1005.79 6999.00
   5   996.78  989.83  983.16  977.71  978.34  982.25  985.73  991.49  999.57 1006.83
   6   987.29  978.52  969.70  961.90  965.04  974.35  981.09  987.25  994.76 1005.15
   7   981.25  970.80  961.38  953.30  958.02  969.37  977.55  982.62  991.13 6999.00
   8  6999.00  966.43  958.38  950.58  956.38  968.14  975.21  981.64  990.77 6999.00
   9  6999.00  968.54  961.92  954.97  960.68  971.77  977.61  984.46  993.92 6999.00
  10  6999.00  976.41  971.85  966.12  970.31  979.26  984.58  991.59 1000.65 1007.30
  11  6999.00  987.60  987.28  984.26  986.63  991.46  995.65 1002.32 1009.18 6999.00
  12   995.33  996.53  998.97  998.29 1001.18 1005.56 1009.94 1018.31 1023.57 6999.00
  13   993.86  999.01 1004.37 1009.51 1015.02 1021.21 1027.36 1033.68 1034.96 6999.00
  14  6999.00 1002.48 1006.57 1010.70 1015.73 1021.38 1027.86 1034.59 1039.27 6999.00
  15  6999.00 6999.00 1009.51 1012.41 1016.35 1019.79 6999.00 6999.00 6999.00 6999.00
1
  VOLUMETRIC BUDGET FOR ENTIRE MODEL AT END OF TIME STEP 40 IN STRESS PERIOD   1
  ------------------------------------------------------------------------------

     CUMULATIVE VOLUMES      L**3       RATES FOR THIS TIME STEP      L**3/T
     ------------------                 ------------------------

           IN:                                      IN:
           ---                                      ---
             STORAGE = 21924192300.0000               STORAGE =          18.4540
       CONSTANT HEAD =           0.0000         CONSTANT HEAD =           0.0000
               WELLS =           0.0000                 WELLS =           0.0000
                  ET =           0.0000                    ET =           0.0000
     HEAD DEP BOUNDS =   130125160.0000       HEAD DEP BOUNDS =           0.2179
            RECHARGE =  1076269310.0000              RECHARGE =           1.7937
      STREAM LEAKAGE = 47451447300.0000        STREAM LEAKAGE =          95.0161

            TOTAL IN = 70582034400.0000              TOTAL IN =         115.4817

          OUT:                                     OUT:
          ----                                     ----
             STORAGE =     1748962.5000               STORAGE =           0.0000
       CONSTANT HEAD =           0.0000         CONSTANT HEAD =           0.0000
               WELLS = 60001075200.0000                 WELLS =         100.0000
                  ET =  9865583620.0000                    ET =          14.9296
     HEAD DEP BOUNDS =   138497152.0000       HEAD DEP BOUNDS =           0.2229
            RECHARGE =           0.0000              RECHARGE =           0.0000
      STREAM LEAKAGE =   577164096.0000        STREAM LEAKAGE =           0.3340

           TOTAL OUT = 70584066000.0000             TOTAL OUT =         115.4865

            IN - OUT =    -2035002.5000              IN - OUT =      -4.7217E-03

 PERCENT DISCREPANCY =           0.00     PERCENT DISCREPANCY =           0.00






          TIME SUMMARY AT END OF TIME STEP  40 IN STRESS PERIOD    1
                    SECONDS     MINUTES      HOURS       DAYS        YEARS
                    -----------------------------------------------------------
   TIME STEP LENGTH 5.57789E+07 9.29648E+05  15494.      645.59      1.7675    
 STRESS PERIOD TIME 6.00011E+08 1.00002E+07 1.66670E+05  6944.6      19.013    
         TOTAL TIME 6.00011E+08 1.00002E+07 1.66670E+05  6944.6      19.013    
1
 
 SOLVING FOR HEAD 
    12 ITERATIONS FOR TIME STEP  41 IN STRESS PERIOD    1

 MAXIMUM HEAD CHANGE FOR EACH ITERATION:

    HEAD CHANGE   HEAD CHANGE   HEAD CHANGE   HEAD CHANGE   HEAD CHANGE
  LAYER,ROW,COL LAYER,ROW,COL LAYER,ROW,COL LAYER,ROW,COL LAYER,ROW,COL
 ----------------------------------------------------------------------
     -2.621        -1.112        -1.169       -0.6317       -0.2984    
  (  1,  4,  1) (  1,  4,  2) (  1,  3,  4) (  1,  6,  5) (  1,  2,  3)
    -0.6439E-01   -0.3008E-01   -0.2596E-01   -0.1632E-01   -0.5949E-02
  (  1,  6,  9) (  1,  3,  4) (  1,  7,  5) (  1,  6,  5) (  1,  7,  4)
    -0.1835E-02   -0.6814E-03
  (  1,  2,  3) (  1,  4,  3)


 NO OUTPUT CONTROL FOR STRESS PERIOD    1   TIME STEP  41
 
 SOLVING FOR HEAD 
    12 ITERATIONS FOR TIME STEP  42 IN STRESS PERIOD    1

 MAXIMUM HEAD CHANGE FOR EACH ITERATION:

    HEAD CHANGE   HEAD CHANGE   HEAD CHANGE   HEAD CHANGE   HEAD CHANGE
  LAYER,ROW,COL LAYER,ROW,COL LAYER,ROW,COL LAYER,ROW,COL LAYER,ROW,COL
 ----------------------------------------------------------------------
     -2.551        -1.089        -1.173       -0.6470       -0.3204    
  (  1,  4,  1) (  1,  4,  2) (  1,  3,  4) (  1,  6,  5) (  1,  2,  3)
    -0.7360E-01   -0.3230E-01   -0.2885E-01   -0.1893E-01   -0.7123E-02
  (  1,  6,  9) (  1,  3,  4) (  1,  6,  5) (  1,  6,  5) (  1,  7,  4)
    -0.2202E-02   -0.8246E-03
  (  1,  2,  3) (  1,  7,  5)


 NO OUTPUT CONTROL FOR STRESS PERIOD    1   TIME STEP  42
 
 SOLVING FOR HEAD 
    15 ITERATIONS FOR TIME STEP  43 IN STRESS PERIOD    1

 MAXIMUM HEAD CHANGE FOR EACH ITERATION:

    HEAD CHANGE   HEAD CHANGE   HEAD CHANGE   HEAD CHANGE   HEAD CHANGE
  LAYER,ROW,COL LAYER,ROW,COL LAYER,ROW,COL LAYER,ROW,COL LAYER,ROW,COL
 ----------------------------------------------------------------------
     -2.461        -1.054        -1.162       -0.6549       -0.3395    
  (  1,  4,  1) (  1,  4,  2) (  1,  3,  4) (  1,  6,  5) (  1,  2,  3)
    -0.8327E-01   -0.3423E-01   -0.3169E-01   -0.2166E-01   -0.8412E-02
  (  1,  6,  9) (  1,  3,  4) (  1,  6,  5) (  1,  6,  5) (  1,  7,  4)
    -0.2611E-02   -0.1011E-02   -0.1212E-02    0.1336E-02   -0.9882E-03
  (  1,  2,  3) (  1,  6,  9) (  1,  3,  4) (  1, 13,  5) (  1, 13,  5)


 NO OUTPUT CONTROL FOR STRESS PERIOD    1   TIME STEP  43
 
 SOLVING FOR HEAD 
    14 ITERATIONS FOR TIME STEP  44 IN STRESS PERIOD    1

 MAXIMUM HEAD CHANGE FOR EACH ITERATION:

    HEAD CHANGE   HEAD CHANGE   HEAD CHANGE   HEAD CHANGE   HEAD CHANGE
  LAYER,ROW,COL LAYER,ROW,COL LAYER,ROW,COL LAYER,ROW,COL LAYER,ROW,COL
 ----------------------------------------------------------------------
     -2.356        -1.006        -1.136       -0.6544       -0.3549    
  (  1,  7,  1) (  1,  4,  2) (  1,  3,  4) (  1,  6,  5) (  1,  2,  3)
    -0.9319E-01   -0.3576E-01   -0.3434E-01   -0.2443E-01   -0.9808E-02
  (  1,  6,  9) (  1,  3,  4) (  1,  6,  5) (  1,  6,  5) (  1,  7,  4)
    -0.3059E-02   -0.1248E-02   -0.1477E-02   -0.8683E-03
  (  1,  2,  3) (  1,  6,  9) (  1,  3,  4) (  1,  6,  5)


 NO OUTPUT CONTROL FOR STRESS PERIOD    1   TIME STEP  44
 
 SOLVING FOR HEAD 
    15 ITERATIONS FOR TIME STEP  45 IN STRESS PERIOD    1

 MAXIMUM HEAD CHANGE FOR EACH ITERATION:

    HEAD CHANGE   HEAD CHANGE   HEAD CHANGE   HEAD CHANGE   HEAD CHANGE
  LAYER,ROW,COL LAYER,ROW,COL LAYER,ROW,COL LAYER,ROW,COL LAYER,ROW,COL
 ----------------------------------------------------------------------
     -2.243       -0.9480        -1.094       -0.6449       -0.3657    
  (  1,  7,  1) (  1,  4,  2) (  1,  3,  4) (  1,  6,  5) (  1,  2,  3)
    -0.1030       -0.3681E-01   -0.3667E-01   -0.2715E-01   -0.1125E-01
  (  1,  6,  9) (  1,  3,  4) (  1,  6,  5) (  1,  6,  5) (  1,  7,  4)
    -0.3536E-02   -0.1520E-02   -0.1773E-02   -0.1086E-02   -0.5924E-03
  (  1,  2,  3) (  1,  6,  9) (  1,  3,  4) (  1,  6,  5) (  1,  2,  3)


 OUTPUT CONTROL FOR STRESS PERIOD    1   TIME STEP  45
    PRINT BUDGET
    PRINT HEAD FOR ALL LAYERS
    SAVE BUDGET

            WELLS   PERIOD    1   STEP  45
 WELL      1   LAYER   1   ROW     6   COL     4   RATE    -10.0000    
 WELL      2   LAYER   1   ROW     6   COL     5   RATE    -10.0000    
 WELL      3   LAYER   1   ROW     7   COL     4   RATE    -10.0000    
 WELL      4   LAYER   1   ROW     7   COL     5   RATE    -10.0000    
 WELL      5   LAYER   1   ROW     8   COL     4   RATE    -10.0000    
 WELL      6   LAYER   1   ROW     8   COL     5   RATE    -10.0000    
 WELL      7   LAYER   1   ROW     9   COL     4   RATE    -10.0000    
 WELL      8   LAYER   1   ROW     9   COL     5   RATE    -10.0000    
 WELL      9   LAYER   1   ROW    10   COL     4   RATE    -10.0000    
 WELL     10   LAYER   1   ROW    10   COL     5   RATE    -10.0000    
 UBUDSV SAVING "              ET" ON UNIT 59 AT TIME STEP 45, STRESS PERIOD    1

  HEAD DEP BOUNDS   PERIOD    1   STEP  45
 BOUNDARY      1   LAYER   1   ROW    13   COL     1   RATE   -0.218514    
 BOUNDARY      2   LAYER   1   ROW    14   COL     9   RATE    0.218477    



   STREAM LEAKAGE   PERIOD    1   STEP  45

 LAYER ROW COL. STREAM  RCH.  FLOW INTO    FLOW TO  FLOW OUT OF  OVRLND.   DIRECT    STREAM    STREAM    STREAM    STREAM  STREAMBED  STREAMBED
                SEG.NO.  NO.  STRM. RCH.   AQUIFER   STRM. RCH.  RUNOFF    PRECIP      ET       HEAD      DEPTH     WIDTH  CONDCTNC.   GRADIENT

   1    1    1     1     1    2.500E+01   2.401E+00  2.260E+01  0.00E+00  0.00E+00  0.00E+00  1.09E+03  1.16E+00  1.28E+01  5.77E-01  1.39E+00
   1    2    2     1     2    2.260E+01   3.511E+00  1.909E+01  0.00E+00  0.00E+00  0.00E+00  1.09E+03  1.11E+00  1.22E+01  8.53E-01  1.37E+00
   1    3    3     1     3    1.909E+01   2.753E+00  1.634E+01  0.00E+00  0.00E+00  0.00E+00  1.08E+03  1.06E+00  1.13E+01  6.78E-01  1.35E+00
   1    3    4     1     4    1.634E+01   2.331E+00  1.400E+01  0.00E+00  0.00E+00  0.00E+00  1.08E+03  1.02E+00  1.05E+01  5.80E-01  1.34E+00
   1    4    5     2     1    4.004E+00   2.588E+00  1.416E+00  0.00E+00  0.00E+00  0.00E+00  1.07E+03  3.18E-01  1.20E+01  7.80E-01  1.11E+00
   1    5    6     2     2    1.416E+00   1.416E+00  0.000E+00  0.00E+00  0.00E+00  0.00E+00  1.07E+03  1.42E-01  1.20E+01  6.00E-01  1.02E+00
   1    6    6     2     3    0.000E+00   0.000E+00  0.000E+00  0.00E+00  0.00E+00  0.00E+00  1.06E+03  0.00E+00  1.20E+01  6.00E-01  1.00E+00
   1    7    6     2     4    0.000E+00   0.000E+00  0.000E+00  0.00E+00  0.00E+00  0.00E+00  1.06E+03  0.00E+00  1.20E+01  6.00E-01  1.00E+00
   1    8    6     2     5    0.000E+00   0.000E+00  0.000E+00  0.00E+00  0.00E+00  0.00E+00  1.05E+03  0.00E+00  1.20E+01  6.00E-01  1.00E+00
   1    3    5     3     1    1.000E+01   2.825E+00  7.175E+00  0.00E+00  0.00E+00  0.00E+00  1.08E+03  1.91E+00  9.64E+00  7.23E-01  1.95E+00
   1    3    6     3     2    7.175E+00   2.491E+00  4.684E+00  0.00E+00  0.00E+00  0.00E+00  1.07E+03  1.73E+00  8.91E+00  6.68E-01  1.86E+00
   1    3    7     3     3    4.684E+00   1.972E+00  2.712E+00  0.00E+00  0.00E+00  0.00E+00  1.07E+03  1.55E+00  8.22E+00  5.55E-01  1.78E+00
   1    4    8     3     4    2.712E+00   2.257E+00  4.558E-01  0.00E+00  0.00E+00  0.00E+00  1.07E+03  1.36E+00  7.45E+00  6.71E-01  1.68E+00
   1    5    8     3     5    4.558E-01   4.558E-01  0.000E+00  0.00E+00  0.00E+00  0.00E+00  1.06E+03  1.16E+00  6.65E+00  4.99E-01  1.58E+00
   1    6    8     3     6    0.000E+00   0.000E+00  0.000E+00  0.00E+00  0.00E+00  0.00E+00  1.06E+03  0.00E+00  6.15E+00  1.84E-01  1.00E+00
   1    5   10     4     1    1.000E+01   9.052E-01  9.095E+00  0.00E+00  0.00E+00  0.00E+00  1.08E+03  6.21E-01  1.00E+01  2.50E-01  1.21E+00
   1    5    9     4     2    9.095E+00   1.784E+00  7.311E+00  0.00E+00  0.00E+00  0.00E+00  1.07E+03  5.67E-01  1.00E+01  5.00E-01  1.19E+00
   1    6    8     4     3    7.311E+00   1.226E+00  6.086E+00  0.00E+00  0.00E+00  0.00E+00  1.06E+03  5.02E-01  1.00E+01  3.50E-01  1.17E+00
   1    6    8     5     1    6.086E+00   1.472E+00  4.614E+00  0.00E+00  0.00E+00  0.00E+00  1.06E+03  5.40E-01  1.04E+01  4.16E-01  1.18E+00
   1    7    7     5     2    4.614E+00   1.490E+00  3.124E+00  0.00E+00  0.00E+00  0.00E+00  1.05E+03  4.82E-01  8.56E+00  4.28E-01  1.16E+00
   1    8    7     5     3    3.124E+00   8.286E-01  2.296E+00  0.00E+00  0.00E+00  0.00E+00  1.05E+03  4.25E-01  6.91E+00  2.42E-01  1.14E+00
   1    8    6     5     4    2.296E+00   4.945E-01  1.801E+00  0.00E+00  0.00E+00  0.00E+00  1.05E+03  3.86E-01  5.84E+00  1.46E-01  1.13E+00
   1    9    6     6     1    1.801E+00   1.801E+00  0.000E+00  0.00E+00  0.00E+00  0.00E+00  1.04E+03  1.66E-01  1.20E+01  6.00E-01  1.03E+00
   1   10    7     6     2    0.000E+00   0.000E+00  0.000E+00  0.00E+00  0.00E+00  0.00E+00  1.04E+03  0.00E+00  1.20E+01  6.00E-01  1.00E+00
   1   11    7     6     3    0.000E+00   0.000E+00  0.000E+00  0.00E+00  0.00E+00  0.00E+00  1.03E+03  0.00E+00  1.20E+01  6.00E-01  1.00E+00
   1   12    7     6     4    0.000E+00   0.000E+00  0.000E+00  0.00E+00  0.00E+00  0.00E+00  1.03E+03  0.00E+00  1.20E+01  6.00E-01  1.00E+00
   1   13    7     6     5    0.000E+00  -2.694E-01  2.694E-01  0.00E+00  0.00E+00  0.00E+00  1.03E+03  5.32E-02  1.20E+01  2.40E-01 -3.74E-01
   1   14    9     7     1    1.500E+02   3.422E+00  1.466E+02  0.00E+00  0.00E+00  0.00E+00  1.04E+03  2.28E+00  5.53E+01  5.59E+00  2.04E-01
   1   13    8     7     2    1.466E+02   7.072E+00  1.395E+02  0.00E+00  0.00E+00  0.00E+00  1.03E+03  2.25E+00  5.51E+01  6.13E+00  3.84E-01
   1   13    7     7     3    1.395E+02   1.404E+01  1.255E+02  0.00E+00  0.00E+00  0.00E+00  1.03E+03  2.20E+00  5.49E+01  5.55E+00  8.44E-01
   1   13    6     8     1    1.257E+02   1.421E+01  1.115E+02  0.00E+00  0.00E+00  0.00E+00  1.02E+03  2.58E+00  3.74E+01  3.81E+00  1.24E+00
   1   13    5     8     2    1.115E+02   1.328E+01  9.825E+01  0.00E+00  0.00E+00  0.00E+00  1.02E+03  2.46E+00  3.57E+01  3.64E+00  1.22E+00
   1   13    4     8     3    9.825E+01   9.603E+00  8.864E+01  0.00E+00  0.00E+00  0.00E+00  1.01E+03  2.36E+00  3.42E+01  3.49E+00  9.18E-01
   1   13    3     8     4    8.864E+01   4.825E+00  8.382E+01  0.00E+00  0.00E+00  0.00E+00  1.01E+03  2.29E+00  3.32E+01  3.38E+00  4.76E-01
   1   13    2     8     5    8.382E+01   9.414E-01  8.288E+01  0.00E+00  0.00E+00  0.00E+00  9.99E+02  2.26E+00  3.28E+01  3.34E+00  9.40E-02
   1   13    1     8     6    8.288E+01   7.504E-01  8.213E+01  0.00E+00  0.00E+00  0.00E+00  9.94E+02  2.25E+00  3.26E+01  2.00E+00  1.25E-01



1
              HEAD IN LAYER   1 AT END OF TIME STEP  45 IN STRESS PERIOD    1
  ---------------------------------------------------------------------------

           1       2       3       4       5       6       7       8       9      10
 ...................................................................................
   1  1062.68 1043.43 6999.00 6999.00 6999.00 6999.00 6999.00 6999.00 6999.00 6999.00
   2  1045.67 1026.80 1008.40 6999.00 6999.00  998.41 1001.24 1002.43 6999.00 6999.00
   3  6999.00 1004.81  994.49  985.78  986.55  990.49  996.34  996.29 6999.00 6999.00
   4   985.35  984.95  980.10  972.74  971.05  971.17  977.93  990.56  988.08 6999.00
   5   976.84  970.07  964.43  959.63  960.56  964.71  968.32  974.01  981.98  990.43
   6   967.27  959.09  951.48  944.28  947.78  957.48  964.29  970.31  977.04  988.13
   7   961.60  952.44  944.34  936.85  942.00  953.74  961.87  966.25  974.68 6999.00
   8  6999.00  950.75  943.48  936.10  942.34  954.47  961.51  966.94  976.16 6999.00
   9  6999.00  956.23  949.97  943.19  949.18  960.52  966.44  972.88  982.50 6999.00
  10  6999.00  967.72  963.18  957.32  961.50  970.59  976.02  983.11  992.34  998.08
  11  6999.00  982.55  982.21  978.47  980.66  985.48  989.78  996.74 1003.85 6999.00
  12   994.42  994.69  996.76  995.30  997.97 1002.34 1006.88 1015.89 1021.40 6999.00
  13   993.75  998.85 1003.99 1008.98 1014.44 1020.73 1027.08 1033.60 1034.69 6999.00
  14  6999.00 1002.17 1006.12 1010.17 1015.18 1020.91 1027.58 1034.49 1039.25 6999.00
  15  6999.00 6999.00 1008.96 1011.82 1015.75 1019.23 6999.00 6999.00 6999.00 6999.00
1
  VOLUMETRIC BUDGET FOR ENTIRE MODEL AT END OF TIME STEP 45 IN STRESS PERIOD   1
  ------------------------------------------------------------------------------

     CUMULATIVE VOLUMES      L**3       RATES FOR THIS TIME STEP      L**3/T
     ------------------                 ------------------------

           IN:                                      IN:
           ---                                      ---
             STORAGE = 26721073200.0000               STORAGE =           9.8454
       CONSTANT HEAD =           0.0000         CONSTANT HEAD =           0.0000
               WELLS =           0.0000                 WELLS =           0.0000
                  ET =           0.0000                    ET =           0.0000
     HEAD DEP BOUNDS =   211889216.0000       HEAD DEP BOUNDS =           0.2185
            RECHARGE =  1748188540.0000              RECHARGE =           1.7937
      STREAM LEAKAGE = 85041233900.0000        STREAM LEAKAGE =         103.1429

            TOTAL IN =113722384000.0000              TOTAL IN =         115.0005

          OUT:                                     OUT:
          ----                                     ----
             STORAGE =     1748962.5000               STORAGE =           0.0000
       CONSTANT HEAD =           0.0000         CONSTANT HEAD =           0.0000
               WELLS = 97459994600.0000                 WELLS =         100.0000
                  ET = 15356519400.0000                    ET =          14.5147
     HEAD DEP BOUNDS =   220918672.0000       HEAD DEP BOUNDS =           0.2185
            RECHARGE =           0.0000              RECHARGE =           0.0000
      STREAM LEAKAGE =   686404224.0000        STREAM LEAKAGE =           0.2694

           TOTAL OUT =113725587000.0000             TOTAL OUT =         115.0026

            IN - OUT =    -3201074.5000              IN - OUT =      -2.0919E-03

 PERCENT DISCREPANCY =           0.00     PERCENT DISCREPANCY =           0.00






          TIME SUMMARY AT END OF TIME STEP  45 IN STRESS PERIOD    1
                    SECONDS     MINUTES      HOURS       DAYS        YEARS
                    -----------------------------------------------------------
   TIME STEP LENGTH 8.98324E+07 1.49721E+06  24953.      1039.7      2.8466    
 STRESS PERIOD TIME 9.74600E+08 1.62433E+07 2.70722E+05  11280.      30.883    
         TOTAL TIME 9.74600E+08 1.62433E+07 2.70722E+05  11280.      30.883    
1
 
 SOLVING FOR HEAD 
    15 ITERATIONS FOR TIME STEP  46 IN STRESS PERIOD    1

 MAXIMUM HEAD CHANGE FOR EACH ITERATION:

    HEAD CHANGE   HEAD CHANGE   HEAD CHANGE   HEAD CHANGE   HEAD CHANGE
  LAYER,ROW,COL LAYER,ROW,COL LAYER,ROW,COL LAYER,ROW,COL LAYER,ROW,COL
 ----------------------------------------------------------------------
     -2.116       -0.8800        -1.038       -0.6265       -0.3710    
  (  1,  7,  1) (  1,  4,  2) (  1,  3,  4) (  1,  6,  4) (  1,  2,  3)
    -0.1123       -0.3728E-01   -0.3855E-01   -0.2967E-01   -0.1291E-01
  (  1,  6,  9) (  1,  3,  4) (  1,  6,  5) (  1,  6,  5) (  1,  6,  9)
    -0.4027E-02   -0.1820E-02   -0.2092E-02   -0.1337E-02   -0.7570E-03
  (  1,  2,  3) (  1,  6,  9) (  1,  3,  4) (  1,  6,  5) (  1,  2,  3)


 NO OUTPUT CONTROL FOR STRESS PERIOD    1   TIME STEP  46
 
 SOLVING FOR HEAD 
    15 ITERATIONS FOR TIME STEP  47 IN STRESS PERIOD    1

 MAXIMUM HEAD CHANGE FOR EACH ITERATION:

    HEAD CHANGE   HEAD CHANGE   HEAD CHANGE   HEAD CHANGE   HEAD CHANGE
  LAYER,ROW,COL LAYER,ROW,COL LAYER,ROW,COL LAYER,ROW,COL LAYER,ROW,COL
 ----------------------------------------------------------------------
     -1.975       -0.8041       -0.9683       -0.5998       -0.3704    
  (  1,  7,  1) (  1,  4,  2) (  1,  3,  4) (  1,  6,  4) (  1,  2,  3)
    -0.1205       -0.3785E-01   -0.3985E-01   -0.3188E-01   -0.1456E-01
  (  1,  6,  9) (  1,  6,  9) (  1,  6,  5) (  1,  5,  5) (  1,  6,  9)
     0.4649E-02   -0.2139E-02   -0.2424E-02   -0.1616E-02   -0.9475E-03
  (  1,  7,  9) (  1,  6,  9) (  1,  3,  4) (  1,  6,  5) (  1,  2,  3)


 NO OUTPUT CONTROL FOR STRESS PERIOD    1   TIME STEP  47
 
 SOLVING FOR HEAD 
    16 ITERATIONS FOR TIME STEP  48 IN STRESS PERIOD    1

 MAXIMUM HEAD CHANGE FOR EACH ITERATION:

    HEAD CHANGE   HEAD CHANGE   HEAD CHANGE   HEAD CHANGE   HEAD CHANGE
  LAYER,ROW,COL LAYER,ROW,COL LAYER,ROW,COL LAYER,ROW,COL LAYER,ROW,COL
 ----------------------------------------------------------------------
     -1.822       -0.7227       -0.8878       -0.5643       -0.3634    
  (  1,  7,  1) (  1,  4,  2) (  1,  3,  4) (  1,  6,  4) (  1,  2,  3)
    -0.1270       -0.3916E-01   -0.4043E-01   -0.3370E-01   -0.1611E-01
  (  1,  6,  9) (  1,  6,  9) (  1,  6,  5) (  1,  5,  5) (  1,  6,  9)
     0.5306E-02   -0.2459E-02   -0.2750E-02   -0.1900E-02   -0.1160E-02
  (  1,  7,  9) (  1,  6,  9) (  1,  3,  4) (  1,  6,  5) (  1,  2,  3)
    -0.4820E-03
  (  1,  6,  9)


 NO OUTPUT CONTROL FOR STRESS PERIOD    1   TIME STEP  48
 
 SOLVING FOR HEAD 
    16 ITERATIONS FOR TIME STEP  49 IN STRESS PERIOD    1

 MAXIMUM HEAD CHANGE FOR EACH ITERATION:

    HEAD CHANGE   HEAD CHANGE   HEAD CHANGE   HEAD CHANGE   HEAD CHANGE
  LAYER,ROW,COL LAYER,ROW,COL LAYER,ROW,COL LAYER,ROW,COL LAYER,ROW,COL
 ----------------------------------------------------------------------
     -1.660       -0.6380       -0.8024       -0.5210       -0.3498    
  (  1,  7,  1) (  1,  4,  2) (  1,  2,  3) (  1,  6,  4) (  1,  2,  3)
    -0.1310       -0.3972E-01   -0.4020E-01   -0.3488E-01   -0.1741E-01
  (  1,  6,  9) (  1,  6,  9) (  1,  6,  5) (  1,  5,  5) (  1,  6,  9)
     0.5932E-02   -0.2765E-02   -0.3052E-02   -0.2187E-02   -0.1393E-02
  (  1,  7,  9) (  1,  6,  9) (  1,  3,  4) (  1,  6,  5) (  1,  2,  3)
    -0.6120E-03
  (  1,  6,  9)


 NO OUTPUT CONTROL FOR STRESS PERIOD    1   TIME STEP  49
 
 SOLVING FOR HEAD 
    16 ITERATIONS FOR TIME STEP  50 IN STRESS PERIOD    1

 MAXIMUM HEAD CHANGE FOR EACH ITERATION:

    HEAD CHANGE   HEAD CHANGE   HEAD CHANGE   HEAD CHANGE   HEAD CHANGE
  LAYER,ROW,COL LAYER,ROW,COL LAYER,ROW,COL LAYER,ROW,COL LAYER,ROW,COL
 ----------------------------------------------------------------------
     -1.490       -0.5526       -0.7116       -0.4714       -0.3301    
  (  1,  7,  1) (  1,  4,  2) (  1,  2,  3) (  1,  6,  4) (  1,  2,  3)
    -0.1318       -0.3942E-01   -0.3913E-01   -0.3527E-01   -0.1836E-01
  (  1,  6,  9) (  1,  6,  9) (  1,  6,  6) (  1,  5,  5) (  1,  6,  9)
     0.6489E-02   -0.3022E-02   -0.3302E-02   -0.2453E-02   -0.1628E-02
  (  1,  7,  9) (  1,  6,  9) (  1,  3,  4) (  1,  6,  5) (  1,  2,  3)
    -0.7530E-03
  (  1,  6,  9)


 OUTPUT CONTROL FOR STRESS PERIOD    1   TIME STEP  50
    PRINT BUDGET
    PRINT HEAD FOR ALL LAYERS
    SAVE HEAD FOR ALL LAYERS
    SAVE BUDGET

            WELLS   PERIOD    1   STEP  50
 WELL      1   LAYER   1   ROW     6   COL     4   RATE    -10.0000    
 WELL      2   LAYER   1   ROW     6   COL     5   RATE    -10.0000    
 WELL      3   LAYER   1   ROW     7   COL     4   RATE    -10.0000    
 WELL      4   LAYER   1   ROW     7   COL     5   RATE    -10.0000    
 WELL      5   LAYER   1   ROW     8   COL     4   RATE    -10.0000    
 WELL      6   LAYER   1   ROW     8   COL     5   RATE    -10.0000    
 WELL      7   LAYER   1   ROW     9   COL     4   RATE    -10.0000    
 WELL      8   LAYER   1   ROW     9   COL     5   RATE    -10.0000    
 WELL      9   LAYER   1   ROW    10   COL     4   RATE    -10.0000    
 WELL     10   LAYER   1   ROW    10   COL     5   RATE    -10.0000    
 UBUDSV SAVING "              ET" ON UNIT 59 AT TIME STEP 50, STRESS PERIOD    1

  HEAD DEP BOUNDS   PERIOD    1   STEP  50
 BOUNDARY      1   LAYER   1   ROW    13   COL     1   RATE   -0.215322    
 BOUNDARY      2   LAYER   1   ROW    14   COL     9   RATE    0.218864    



   STREAM LEAKAGE   PERIOD    1   STEP  50

 LAYER ROW COL. STREAM  RCH.  FLOW INTO    FLOW TO  FLOW OUT OF  OVRLND.   DIRECT    STREAM    STREAM    STREAM    STREAM  STREAMBED  STREAMBED
                SEG.NO.  NO.  STRM. RCH.   AQUIFER   STRM. RCH.  RUNOFF    PRECIP      ET       HEAD      DEPTH     WIDTH  CONDCTNC.   GRADIENT

   1    1    1     1     1    2.500E+01   2.401E+00  2.260E+01  0.00E+00  0.00E+00  0.00E+00  1.09E+03  1.16E+00  1.28E+01  5.77E-01  1.39E+00
   1    2    2     1     2    2.260E+01   3.511E+00  1.909E+01  0.00E+00  0.00E+00  0.00E+00  1.09E+03  1.11E+00  1.22E+01  8.53E-01  1.37E+00
   1    3    3     1     3    1.909E+01   2.753E+00  1.634E+01  0.00E+00  0.00E+00  0.00E+00  1.08E+03  1.06E+00  1.13E+01  6.78E-01  1.35E+00
   1    3    4     1     4    1.634E+01   2.331E+00  1.400E+01  0.00E+00  0.00E+00  0.00E+00  1.08E+03  1.02E+00  1.05E+01  5.80E-01  1.34E+00
   1    4    5     2     1    4.004E+00   2.588E+00  1.416E+00  0.00E+00  0.00E+00  0.00E+00  1.07E+03  3.18E-01  1.20E+01  7.80E-01  1.11E+00
   1    5    6     2     2    1.416E+00   1.416E+00  0.000E+00  0.00E+00  0.00E+00  0.00E+00  1.07E+03  1.42E-01  1.20E+01  6.00E-01  1.02E+00
   1    6    6     2     3    0.000E+00   0.000E+00  0.000E+00  0.00E+00  0.00E+00  0.00E+00  1.06E+03  0.00E+00  1.20E+01  6.00E-01  1.00E+00
   1    7    6     2     4    0.000E+00   0.000E+00  0.000E+00  0.00E+00  0.00E+00  0.00E+00  1.06E+03  0.00E+00  1.20E+01  6.00E-01  1.00E+00
   1    8    6     2     5    0.000E+00   0.000E+00  0.000E+00  0.00E+00  0.00E+00  0.00E+00  1.05E+03  0.00E+00  1.20E+01  6.00E-01  1.00E+00
   1    3    5     3     1    1.000E+01   2.825E+00  7.175E+00  0.00E+00  0.00E+00  0.00E+00  1.08E+03  1.91E+00  9.64E+00  7.23E-01  1.95E+00
   1    3    6     3     2    7.175E+00   2.491E+00  4.684E+00  0.00E+00  0.00E+00  0.00E+00  1.07E+03  1.73E+00  8.91E+00  6.68E-01  1.86E+00
   1    3    7     3     3    4.684E+00   1.972E+00  2.712E+00  0.00E+00  0.00E+00  0.00E+00  1.07E+03  1.55E+00  8.22E+00  5.55E-01  1.78E+00
   1    4    8     3     4    2.712E+00   2.257E+00  4.558E-01  0.00E+00  0.00E+00  0.00E+00  1.07E+03  1.36E+00  7.45E+00  6.71E-01  1.68E+00
   1    5    8     3     5    4.558E-01   4.558E-01  0.000E+00  0.00E+00  0.00E+00  0.00E+00  1.06E+03  1.16E+00  6.65E+00  4.99E-01  1.58E+00
   1    6    8     3     6    0.000E+00   0.000E+00  0.000E+00  0.00E+00  0.00E+00  0.00E+00  1.06E+03  0.00E+00  6.15E+00  1.84E-01  1.00E+00
   1    5   10     4     1    1.000E+01   9.052E-01  9.095E+00  0.00E+00  0.00E+00  0.00E+00  1.08E+03  6.21E-01  1.00E+01  2.50E-01  1.21E+00
   1    5    9     4     2    9.095E+00   1.784E+00  7.311E+00  0.00E+00  0.00E+00  0.00E+00  1.07E+03  5.67E-01  1.00E+01  5.00E-01  1.19E+00
   1    6    8     4     3    7.311E+00   1.226E+00  6.086E+00  0.00E+00  0.00E+00  0.00E+00  1.06E+03  5.02E-01  1.00E+01  3.50E-01  1.17E+00
   1    6    8     5     1    6.086E+00   1.472E+00  4.614E+00  0.00E+00  0.00E+00  0.00E+00  1.06E+03  5.40E-01  1.04E+01  4.16E-01  1.18E+00
   1    7    7     5     2    4.614E+00   1.490E+00  3.124E+00  0.00E+00  0.00E+00  0.00E+00  1.05E+03  4.82E-01  8.56E+00  4.28E-01  1.16E+00
   1    8    7     5     3    3.124E+00   8.286E-01  2.296E+00  0.00E+00  0.00E+00  0.00E+00  1.05E+03  4.25E-01  6.91E+00  2.42E-01  1.14E+00
   1    8    6     5     4    2.296E+00   4.945E-01  1.801E+00  0.00E+00  0.00E+00  0.00E+00  1.05E+03  3.86E-01  5.84E+00  1.46E-01  1.13E+00
   1    9    6     6     1    1.801E+00   1.801E+00  0.000E+00  0.00E+00  0.00E+00  0.00E+00  1.04E+03  1.66E-01  1.20E+01  6.00E-01  1.03E+00
   1   10    7     6     2    0.000E+00   0.000E+00  0.000E+00  0.00E+00  0.00E+00  0.00E+00  1.04E+03  0.00E+00  1.20E+01  6.00E-01  1.00E+00
   1   11    7     6     3    0.000E+00   0.000E+00  0.000E+00  0.00E+00  0.00E+00  0.00E+00  1.03E+03  0.00E+00  1.20E+01  6.00E-01  1.00E+00
   1   12    7     6     4    0.000E+00   0.000E+00  0.000E+00  0.00E+00  0.00E+00  0.00E+00  1.03E+03  0.00E+00  1.20E+01  6.00E-01  1.00E+00
   1   13    7     6     5    0.000E+00  -2.245E-01  2.245E-01  0.00E+00  0.00E+00  0.00E+00  1.03E+03  4.77E-02  1.20E+01  2.40E-01 -3.12E-01
   1   14    9     7     1    1.500E+02   3.479E+00  1.465E+02  0.00E+00  0.00E+00  0.00E+00  1.04E+03  2.28E+00  5.53E+01  5.59E+00  2.07E-01
   1   13    8     7     2    1.465E+02   7.393E+00  1.391E+02  0.00E+00  0.00E+00  0.00E+00  1.03E+03  2.25E+00  5.51E+01  6.13E+00  4.02E-01
   1   13    7     7     3    1.391E+02   1.507E+01  1.241E+02  0.00E+00  0.00E+00  0.00E+00  1.03E+03  2.19E+00  5.49E+01  5.55E+00  9.06E-01
   1   13    6     8     1    1.243E+02   1.535E+01  1.089E+02  0.00E+00  0.00E+00  0.00E+00  1.02E+03  2.56E+00  3.72E+01  3.79E+00  1.35E+00
   1   13    5     8     2    1.089E+02   1.452E+01  9.441E+01  0.00E+00  0.00E+00  0.00E+00  1.02E+03  2.43E+00  3.53E+01  3.60E+00  1.35E+00
   1   13    4     8     3    9.441E+01   1.061E+01  8.380E+01  0.00E+00  0.00E+00  0.00E+00  1.01E+03  2.32E+00  3.36E+01  3.42E+00  1.03E+00
   1   13    3     8     4    8.380E+01   5.456E+00  7.834E+01  0.00E+00  0.00E+00  0.00E+00  1.01E+03  2.24E+00  3.24E+01  3.30E+00  5.50E-01
   1   13    2     8     5    7.834E+01   1.115E+00  7.722E+01  0.00E+00  0.00E+00  0.00E+00  9.99E+02  2.20E+00  3.19E+01  3.25E+00  1.14E-01
   1   13    1     8     6    7.722E+01   7.783E-01  7.645E+01  0.00E+00  0.00E+00  0.00E+00  9.94E+02  2.19E+00  3.18E+01  1.94E+00  1.34E-01



1
              HEAD IN LAYER   1 AT END OF TIME STEP  50 IN STRESS PERIOD    1
  ---------------------------------------------------------------------------

           1       2       3       4       5       6       7       8       9      10
 ...................................................................................
   1  1056.26 1033.44 6999.00 6999.00 6999.00 6999.00 6999.00 6999.00 6999.00 6999.00
   2  1035.59 1014.20  994.65 6999.00 6999.00  984.77  987.53  988.43 6999.00 6999.00
   3  6999.00  990.94  980.36  971.94  973.16  977.30  983.15  982.65 6999.00 6999.00
   4   970.39  970.30  965.98  959.07  957.67  957.89  964.77  978.09  974.99 6999.00
   5   961.83  955.16  950.45  946.21  947.38  951.75  955.47  961.13  969.07  979.27
   6   952.02  944.41  937.90  931.20  935.01  945.02  951.91  957.82  963.84  976.80
   7   946.61  938.62  931.70  924.69  930.18  942.25  950.34  954.19  962.70 6999.00
   8  6999.00  939.14  932.53  925.46  932.06  944.49  951.53  956.15  965.74 6999.00
   9  6999.00  947.35  941.30  934.65  940.84  952.39  958.39  964.60  974.70 6999.00
  10  6999.00  961.58  956.99  951.01  955.18  964.37  969.91  977.20  986.86  991.99
  11  6999.00  979.03  978.63  974.35  976.41  981.24  985.63  992.87 1000.31 6999.00
  12   993.80  993.42  995.21  993.18  995.70 1000.08 1004.73 1014.23 1019.98 6999.00
  13   993.67  998.73 1003.71 1008.59 1014.02 1020.38 1026.89 1033.55 1034.51 6999.00
  14  6999.00 1001.95 1005.80 1009.79 1014.78 1020.58 1027.38 1034.42 1039.24 6999.00
  15  6999.00 6999.00 1008.57 1011.41 1015.34 1018.84 6999.00 6999.00 6999.00 6999.00

 HEAD WILL BE SAVED ON UNIT   58 AT END OF TIME STEP  50, STRESS PERIOD    1
1
  VOLUMETRIC BUDGET FOR ENTIRE MODEL AT END OF TIME STEP 50 IN STRESS PERIOD   1
  ------------------------------------------------------------------------------

     CUMULATIVE VOLUMES      L**3       RATES FOR THIS TIME STEP      L**3/T
     ------------------                 ------------------------

           IN:                                      IN:
           ---                                      ---
             STORAGE = 30216323100.0000               STORAGE =           3.8647
       CONSTANT HEAD =           0.0000         CONSTANT HEAD =           0.0000
               WELLS =           0.0000                 WELLS =           0.0000
                  ET =           0.0000                    ET =           0.0000
     HEAD DEP BOUNDS =   343850112.0000       HEAD DEP BOUNDS =           0.2189
            RECHARGE =  2830321410.0000              RECHARGE =           1.7937
      STREAM LEAKAGE =149569012000.0000        STREAM LEAKAGE =         108.7782

            TOTAL IN =182959505000.0000              TOTAL IN =         114.6555

          OUT:                                     OUT:
          ----                                     ----
             STORAGE =     1748962.5000               STORAGE =           0.0000
       CONSTANT HEAD =           0.0000         CONSTANT HEAD =           0.0000
               WELLS =157787963000.0000                 WELLS =         100.0000
                  ET = 23991631900.0000                    ET =          14.2170
     HEAD DEP BOUNDS =   351446016.0000       HEAD DEP BOUNDS =           0.2153
            RECHARGE =           0.0000              RECHARGE =           0.0000
      STREAM LEAKAGE =   830583616.0000        STREAM LEAKAGE =           0.2245

           TOTAL OUT =182963372000.0000             TOTAL OUT =         114.6568

            IN - OUT =    -3867554.5000              IN - OUT =      -1.3282E-03

 PERCENT DISCREPANCY =           0.00     PERCENT DISCREPANCY =           0.00






          TIME SUMMARY AT END OF TIME STEP  50 IN STRESS PERIOD    1
                    SECONDS     MINUTES      HOURS       DAYS        YEARS
                    -----------------------------------------------------------
   TIME STEP LENGTH 1.44676E+08 2.41127E+06  40188.      1674.5      4.5845    
 STRESS PERIOD TIME 1.57788E+09 2.62980E+07 4.38300E+05  18262.      50.000    
         TOTAL TIME 1.57788E+09 2.62980E+07 4.38300E+05  18262.      50.000    
1
1
                            STRESS PERIOD NO.    2, LENGTH =  0.1577880E+10
                            -----------------------------------------------

                              NUMBER OF TIME STEPS =    50

                               MULTIPLIER FOR DELT =     1.100

                            INITIAL TIME STEP SIZE =   1355672.    

      0 WELLS

 REUSING SURF FROM LAST STRESS PERIOD

 REUSING EVTR FROM LAST STRESS PERIOD

 REUSING EXDP FROM LAST STRESS PERIOD

 REUSING NON-PARAMETER GHB CELLS FROM LAST STRESS PERIOD

      2 GHB CELLS

 REUSING RECH FROM LAST STRESS PERIOD

 REUSING STREAM SEGMENT DATA FROM LAST STRESS PERIOD
 
 SOLVING FOR HEAD 

     6 ITERATIONS FOR TIME STEP   1 IN STRESS PERIOD    2

 MAXIMUM HEAD CHANGE FOR EACH ITERATION:

    HEAD CHANGE   HEAD CHANGE   HEAD CHANGE   HEAD CHANGE   HEAD CHANGE
  LAYER,ROW,COL LAYER,ROW,COL LAYER,ROW,COL LAYER,ROW,COL LAYER,ROW,COL
 ----------------------------------------------------------------------
      2.001        0.4427        0.9329E-01    0.1936E-01    0.3983E-02
  (  1,  8,  4) (  1,  8,  4) (  1,  8,  4) (  1,  8,  4) (  1,  8,  4)
     0.8081E-03
  (  1,  8,  4)


 OUTPUT CONTROL FOR STRESS PERIOD    2   TIME STEP   1
    PRINT BUDGET
    PRINT HEAD FOR ALL LAYERS
    SAVE BUDGET
 UBUDSV SAVING "              ET" ON UNIT 59 AT TIME STEP  1, STRESS PERIOD    2

  HEAD DEP BOUNDS   PERIOD    2   STEP   1
 BOUNDARY      1   LAYER   1   ROW    13   COL     1   RATE   -0.215320    
 BOUNDARY      2   LAYER   1   ROW    14   COL     9   RATE    0.218865    



   STREAM LEAKAGE   PERIOD    2   STEP   1

 LAYER ROW COL. STREAM  RCH.  FLOW INTO    FLOW TO  FLOW OUT OF  OVRLND.   DIRECT    STREAM    STREAM    STREAM    STREAM  STREAMBED  STREAMBED
                SEG.NO.  NO.  STRM. RCH.   AQUIFER   STRM. RCH.  RUNOFF    PRECIP      ET       HEAD      DEPTH     WIDTH  CONDCTNC.   GRADIENT

   1    1    1     1     1    2.500E+01   2.401E+00  2.260E+01  0.00E+00  0.00E+00  0.00E+00  1.09E+03  1.16E+00  1.28E+01  5.77E-01  1.39E+00
   1    2    2     1     2    2.260E+01   3.511E+00  1.909E+01  0.00E+00  0.00E+00  0.00E+00  1.09E+03  1.11E+00  1.22E+01  8.53E-01  1.37E+00
   1    3    3     1     3    1.909E+01   2.753E+00  1.634E+01  0.00E+00  0.00E+00  0.00E+00  1.08E+03  1.06E+00  1.13E+01  6.78E-01  1.35E+00
   1    3    4     1     4    1.634E+01   2.331E+00  1.400E+01  0.00E+00  0.00E+00  0.00E+00  1.08E+03  1.02E+00  1.05E+01  5.80E-01  1.34E+00
   1    4    5     2     1    4.004E+00   2.588E+00  1.416E+00  0.00E+00  0.00E+00  0.00E+00  1.07E+03  3.18E-01  1.20E+01  7.80E-01  1.11E+00
   1    5    6     2     2    1.416E+00   1.416E+00  0.000E+00  0.00E+00  0.00E+00  0.00E+00  1.07E+03  1.42E-01  1.20E+01  6.00E-01  1.02E+00
   1    6    6     2     3    0.000E+00   0.000E+00  0.000E+00  0.00E+00  0.00E+00  0.00E+00  1.06E+03  0.00E+00  1.20E+01  6.00E-01  1.00E+00
   1    7    6     2     4    0.000E+00   0.000E+00  0.000E+00  0.00E+00  0.00E+00  0.00E+00  1.06E+03  0.00E+00  1.20E+01  6.00E-01  1.00E+00
   1    8    6     2     5    0.000E+00   0.000E+00  0.000E+00  0.00E+00  0.00E+00  0.00E+00  1.05E+03  0.00E+00  1.20E+01  6.00E-01  1.00E+00
   1    3    5     3     1    1.000E+01   2.825E+00  7.175E+00  0.00E+00  0.00E+00  0.00E+00  1.08E+03  1.91E+00  9.64E+00  7.23E-01  1.95E+00
   1    3    6     3     2    7.175E+00   2.491E+00  4.684E+00  0.00E+00  0.00E+00  0.00E+00  1.07E+03  1.73E+00  8.91E+00  6.68E-01  1.86E+00
   1    3    7     3     3    4.684E+00   1.972E+00  2.712E+00  0.00E+00  0.00E+00  0.00E+00  1.07E+03  1.55E+00  8.22E+00  5.55E-01  1.78E+00
   1    4    8     3     4    2.712E+00   2.257E+00  4.558E-01  0.00E+00  0.00E+00  0.00E+00  1.07E+03  1.36E+00  7.45E+00  6.71E-01  1.68E+00
   1    5    8     3     5    4.558E-01   4.558E-01  0.000E+00  0.00E+00  0.00E+00  0.00E+00  1.06E+03  1.16E+00  6.65E+00  4.99E-01  1.58E+00
   1    6    8     3     6    0.000E+00   0.000E+00  0.000E+00  0.00E+00  0.00E+00  0.00E+00  1.06E+03  0.00E+00  6.15E+00  1.84E-01  1.00E+00
   1    5   10     4     1    1.000E+01   9.052E-01  9.095E+00  0.00E+00  0.00E+00  0.00E+00  1.08E+03  6.21E-01  1.00E+01  2.50E-01  1.21E+00
   1    5    9     4     2    9.095E+00   1.784E+00  7.311E+00  0.00E+00  0.00E+00  0.00E+00  1.07E+03  5.67E-01  1.00E+01  5.00E-01  1.19E+00
   1    6    8     4     3    7.311E+00   1.226E+00  6.086E+00  0.00E+00  0.00E+00  0.00E+00  1.06E+03  5.02E-01  1.00E+01  3.50E-01  1.17E+00
   1    6    8     5     1    6.086E+00   1.472E+00  4.614E+00  0.00E+00  0.00E+00  0.00E+00  1.06E+03  5.40E-01  1.04E+01  4.16E-01  1.18E+00
   1    7    7     5     2    4.614E+00   1.490E+00  3.124E+00  0.00E+00  0.00E+00  0.00E+00  1.05E+03  4.82E-01  8.56E+00  4.28E-01  1.16E+00
   1    8    7     5     3    3.124E+00   8.286E-01  2.296E+00  0.00E+00  0.00E+00  0.00E+00  1.05E+03  4.25E-01  6.91E+00  2.42E-01  1.14E+00
   1    8    6     5     4    2.296E+00   4.945E-01  1.801E+00  0.00E+00  0.00E+00  0.00E+00  1.05E+03  3.86E-01  5.84E+00  1.46E-01  1.13E+00
   1    9    6     6     1    1.801E+00   1.801E+00  0.000E+00  0.00E+00  0.00E+00  0.00E+00  1.04E+03  1.66E-01  1.20E+01  6.00E-01  1.03E+00
   1   10    7     6     2    0.000E+00   0.000E+00  0.000E+00  0.00E+00  0.00E+00  0.00E+00  1.04E+03  0.00E+00  1.20E+01  6.00E-01  1.00E+00
   1   11    7     6     3    0.000E+00   0.000E+00  0.000E+00  0.00E+00  0.00E+00  0.00E+00  1.03E+03  0.00E+00  1.20E+01  6.00E-01  1.00E+00
   1   12    7     6     4    0.000E+00   0.000E+00  0.000E+00  0.00E+00  0.00E+00  0.00E+00  1.03E+03  0.00E+00  1.20E+01  6.00E-01  1.00E+00
   1   13    7     6     5    0.000E+00  -2.245E-01  2.245E-01  0.00E+00  0.00E+00  0.00E+00  1.03E+03  4.77E-02  1.20E+01  2.40E-01 -3.12E-01
   1   14    9     7     1    1.500E+02   3.479E+00  1.465E+02  0.00E+00  0.00E+00  0.00E+00  1.04E+03  2.28E+00  5.53E+01  5.59E+00  2.07E-01
   1   13    8     7     2    1.465E+02   7.394E+00  1.391E+02  0.00E+00  0.00E+00  0.00E+00  1.03E+03  2.25E+00  5.51E+01  6.13E+00  4.02E-01
   1   13    7     7     3    1.391E+02   1.507E+01  1.241E+02  0.00E+00  0.00E+00  0.00E+00  1.03E+03  2.19E+00  5.49E+01  5.55E+00  9.06E-01
   1   13    6     8     1    1.243E+02   1.535E+01  1.089E+02  0.00E+00  0.00E+00  0.00E+00  1.02E+03  2.56E+00  3.72E+01  3.79E+00  1.35E+00
   1   13    5     8     2    1.089E+02   1.451E+01  9.442E+01  0.00E+00  0.00E+00  0.00E+00  1.02E+03  2.43E+00  3.53E+01  3.60E+00  1.34E+00
   1   13    4     8     3    9.442E+01   1.061E+01  8.381E+01  0.00E+00  0.00E+00  0.00E+00  1.01E+03  2.32E+00  3.36E+01  3.42E+00  1.03E+00
   1   13    3     8     4    8.381E+01   5.456E+00  7.836E+01  0.00E+00  0.00E+00  0.00E+00  1.01E+03  2.24E+00  3.24E+01  3.30E+00  5.50E-01
   1   13    2     8     5    7.836E+01   1.115E+00  7.724E+01  0.00E+00  0.00E+00  0.00E+00  9.99E+02  2.20E+00  3.19E+01  3.25E+00  1.14E-01
   1   13    1     8     6    7.724E+01   7.788E-01  7.646E+01  0.00E+00  0.00E+00  0.00E+00  9.94E+02  2.19E+00  3.18E+01  1.94E+00  1.34E-01



1
              HEAD IN LAYER   1 AT END OF TIME STEP   1 IN STRESS PERIOD    2
  ---------------------------------------------------------------------------

           1       2       3       4       5       6       7       8       9      10
 ...................................................................................
   1  1056.25 1033.42 6999.00 6999.00 6999.00 6999.00 6999.00 6999.00 6999.00 6999.00
   2  1035.58 1014.18  994.63 6999.00 6999.00  984.75  987.51  988.41 6999.00 6999.00
   3  6999.00  990.92  980.33  971.93  973.15  977.28  983.13  982.63 6999.00 6999.00
   4   970.37  970.28  965.97  959.09  957.69  957.88  964.75  978.08  974.97 6999.00
   5   961.81  955.13  950.46  946.48  947.63  951.79  955.46  961.11  969.05  979.25
   6   952.00  944.40  938.08  933.44  937.07  945.28  951.93  957.81  963.82  976.79
   7   946.59  938.61  931.91  927.20  932.49  942.56  950.37  954.18  962.68 6999.00
   8  6999.00  939.13  932.71  928.03  934.40  944.81  951.56  956.13  965.73 6999.00
   9  6999.00  947.34  941.49  937.18  943.13  952.72  958.43  964.59  974.69 6999.00
  10  6999.00  961.58  957.17  953.26  957.21  964.65  969.94  977.19  986.86  991.98
  11  6999.00  979.03  978.65  974.63  976.69  981.30  985.63  992.87 1000.31 6999.00
  12   993.80  993.42  995.21  993.22  995.74 1000.08 1004.73 1014.23 1019.97 6999.00
  13   993.67  998.73 1003.71 1008.59 1014.03 1020.38 1026.89 1033.55 1034.51 6999.00
  14  6999.00 1001.95 1005.80 1009.78 1014.78 1020.58 1027.38 1034.42 1039.24 6999.00
  15  6999.00 6999.00 1008.57 1011.41 1015.34 1018.84 6999.00 6999.00 6999.00 6999.00
1
  VOLUMETRIC BUDGET FOR ENTIRE MODEL AT END OF TIME STEP  1 IN STRESS PERIOD   2
  ------------------------------------------------------------------------------

     CUMULATIVE VOLUMES      L**3       RATES FOR THIS TIME STEP      L**3/T
     ------------------                 ------------------------

           IN:                                      IN:
           ---                                      ---
             STORAGE = 30218758100.0000               STORAGE =           1.7968
       CONSTANT HEAD =           0.0000         CONSTANT HEAD =           0.0000
               WELLS =           0.0000                 WELLS =           0.0000
                  ET =           0.0000                    ET =           0.0000
     HEAD DEP BOUNDS =   344146816.0000       HEAD DEP BOUNDS =           0.2189
            RECHARGE =  2832753150.0000              RECHARGE =           1.7937
      STREAM LEAKAGE =149716451000.0000        STREAM LEAKAGE =         108.7616

            TOTAL IN =183112106000.0000              TOTAL IN =         112.5711

          OUT:                                     OUT:
          ----                                     ----
             STORAGE =   134487456.0000               STORAGE =          97.9134
       CONSTANT HEAD =           0.0000         CONSTANT HEAD =           0.0000
               WELLS =157787963000.0000                 WELLS =           0.0000
                  ET = 24010907600.0000                    ET =          14.2179
     HEAD DEP BOUNDS =   351737920.0000       HEAD DEP BOUNDS =           0.2153
            RECHARGE =           0.0000              RECHARGE =           0.0000
      STREAM LEAKAGE =   830887936.0000        STREAM LEAKAGE =           0.2245

           TOTAL OUT =183115989000.0000             TOTAL OUT =         112.5711

            IN - OUT =    -3874912.0000              IN - OUT =      -2.2069E-05

 PERCENT DISCREPANCY =           0.00     PERCENT DISCREPANCY =           0.00






          TIME SUMMARY AT END OF TIME STEP   1 IN STRESS PERIOD    2
                    SECONDS     MINUTES      HOURS       DAYS        YEARS
                    -----------------------------------------------------------
   TIME STEP LENGTH 1.35567E+06  22595.      376.58      15.691     4.29587E-02
 STRESS PERIOD TIME 1.35567E+06  22595.      376.58      15.691     4.29587E-02
         TOTAL TIME 1.57924E+09 2.63206E+07 4.38677E+05  18278.      50.043    
1
 
 SOLVING FOR HEAD 
     6 ITERATIONS FOR TIME STEP   2 IN STRESS PERIOD    2

 MAXIMUM HEAD CHANGE FOR EACH ITERATION:

    HEAD CHANGE   HEAD CHANGE   HEAD CHANGE   HEAD CHANGE   HEAD CHANGE
  LAYER,ROW,COL LAYER,ROW,COL LAYER,ROW,COL LAYER,ROW,COL LAYER,ROW,COL
 ----------------------------------------------------------------------
      2.051        0.4575        0.9679E-01    0.2014E-01    0.4147E-02
  (  1,  8,  4) (  1,  8,  4) (  1,  8,  4) (  1,  8,  4) (  1,  8,  4)
     0.8411E-03
  (  1,  8,  4)


 NO OUTPUT CONTROL FOR STRESS PERIOD    2   TIME STEP   2
 
 SOLVING FOR HEAD 
     6 ITERATIONS FOR TIME STEP   3 IN STRESS PERIOD    2

 MAXIMUM HEAD CHANGE FOR EACH ITERATION:

    HEAD CHANGE   HEAD CHANGE   HEAD CHANGE   HEAD CHANGE   HEAD CHANGE
  LAYER,ROW,COL LAYER,ROW,COL LAYER,ROW,COL LAYER,ROW,COL LAYER,ROW,COL
 ----------------------------------------------------------------------
      2.067        0.4663        0.9917E-01    0.2070E-01    0.4265E-02
  (  1,  8,  4) (  1,  8,  4) (  1,  8,  4) (  1,  8,  4) (  1,  8,  4)
     0.8639E-03
  (  1,  8,  4)


 NO OUTPUT CONTROL FOR STRESS PERIOD    2   TIME STEP   3
 
 SOLVING FOR HEAD 
     6 ITERATIONS FOR TIME STEP   4 IN STRESS PERIOD    2

 MAXIMUM HEAD CHANGE FOR EACH ITERATION:

    HEAD CHANGE   HEAD CHANGE   HEAD CHANGE   HEAD CHANGE   HEAD CHANGE
  LAYER,ROW,COL LAYER,ROW,COL LAYER,ROW,COL LAYER,ROW,COL LAYER,ROW,COL
 ----------------------------------------------------------------------
      2.056        0.4703        0.1007        0.2108E-01    0.4348E-02
  (  1,  8,  4) (  1,  8,  4) (  1,  8,  4) (  1,  8,  4) (  1,  8,  4)
     0.8785E-03
  (  1,  8,  4)


 NO OUTPUT CONTROL FOR STRESS PERIOD    2   TIME STEP   4
 
 SOLVING FOR HEAD 
     7 ITERATIONS FOR TIME STEP   5 IN STRESS PERIOD    2

 MAXIMUM HEAD CHANGE FOR EACH ITERATION:

    HEAD CHANGE   HEAD CHANGE   HEAD CHANGE   HEAD CHANGE   HEAD CHANGE
  LAYER,ROW,COL LAYER,ROW,COL LAYER,ROW,COL LAYER,ROW,COL LAYER,ROW,COL
 ----------------------------------------------------------------------
      2.023        0.4711        0.1018        0.2138E-01    0.4413E-02
  (  1,  8,  4) (  1,  8,  4) (  1,  8,  4) (  1,  8,  4) (  1,  8,  4)
     0.1184E-02   -0.9297E-03
  (  1, 13,  5) (  1, 13,  5)


 OUTPUT CONTROL FOR STRESS PERIOD    2   TIME STEP   5
    PRINT BUDGET
    PRINT HEAD FOR ALL LAYERS
    SAVE BUDGET
 UBUDSV SAVING "              ET" ON UNIT 59 AT TIME STEP  5, STRESS PERIOD    2

  HEAD DEP BOUNDS   PERIOD    2   STEP   5
 BOUNDARY      1   LAYER   1   ROW    13   COL     1   RATE   -0.215586    
 BOUNDARY      2   LAYER   1   ROW    14   COL     9   RATE    0.218865    



   STREAM LEAKAGE   PERIOD    2   STEP   5

 LAYER ROW COL. STREAM  RCH.  FLOW INTO    FLOW TO  FLOW OUT OF  OVRLND.   DIRECT    STREAM    STREAM    STREAM    STREAM  STREAMBED  STREAMBED
                SEG.NO.  NO.  STRM. RCH.   AQUIFER   STRM. RCH.  RUNOFF    PRECIP      ET       HEAD      DEPTH     WIDTH  CONDCTNC.   GRADIENT

   1    1    1     1     1    2.500E+01   2.401E+00  2.260E+01  0.00E+00  0.00E+00  0.00E+00  1.09E+03  1.16E+00  1.28E+01  5.77E-01  1.39E+00
   1    2    2     1     2    2.260E+01   3.511E+00  1.909E+01  0.00E+00  0.00E+00  0.00E+00  1.09E+03  1.11E+00  1.22E+01  8.53E-01  1.37E+00
   1    3    3     1     3    1.909E+01   2.753E+00  1.634E+01  0.00E+00  0.00E+00  0.00E+00  1.08E+03  1.06E+00  1.13E+01  6.78E-01  1.35E+00
   1    3    4     1     4    1.634E+01   2.331E+00  1.400E+01  0.00E+00  0.00E+00  0.00E+00  1.08E+03  1.02E+00  1.05E+01  5.80E-01  1.34E+00
   1    4    5     2     1    4.004E+00   2.588E+00  1.416E+00  0.00E+00  0.00E+00  0.00E+00  1.07E+03  3.18E-01  1.20E+01  7.80E-01  1.11E+00
   1    5    6     2     2    1.416E+00   1.416E+00  0.000E+00  0.00E+00  0.00E+00  0.00E+00  1.07E+03  1.42E-01  1.20E+01  6.00E-01  1.02E+00
   1    6    6     2     3    0.000E+00   0.000E+00  0.000E+00  0.00E+00  0.00E+00  0.00E+00  1.06E+03  0.00E+00  1.20E+01  6.00E-01  1.00E+00
   1    7    6     2     4    0.000E+00   0.000E+00  0.000E+00  0.00E+00  0.00E+00  0.00E+00  1.06E+03  0.00E+00  1.20E+01  6.00E-01  1.00E+00
   1    8    6     2     5    0.000E+00   0.000E+00  0.000E+00  0.00E+00  0.00E+00  0.00E+00  1.05E+03  0.00E+00  1.20E+01  6.00E-01  1.00E+00
   1    3    5     3     1    1.000E+01   2.825E+00  7.175E+00  0.00E+00  0.00E+00  0.00E+00  1.08E+03  1.91E+00  9.64E+00  7.23E-01  1.95E+00
   1    3    6     3     2    7.175E+00   2.491E+00  4.684E+00  0.00E+00  0.00E+00  0.00E+00  1.07E+03  1.73E+00  8.91E+00  6.68E-01  1.86E+00
   1    3    7     3     3    4.684E+00   1.972E+00  2.712E+00  0.00E+00  0.00E+00  0.00E+00  1.07E+03  1.55E+00  8.22E+00  5.55E-01  1.78E+00
   1    4    8     3     4    2.712E+00   2.257E+00  4.558E-01  0.00E+00  0.00E+00  0.00E+00  1.07E+03  1.36E+00  7.45E+00  6.71E-01  1.68E+00
   1    5    8     3     5    4.558E-01   4.558E-01  0.000E+00  0.00E+00  0.00E+00  0.00E+00  1.06E+03  1.16E+00  6.65E+00  4.99E-01  1.58E+00
   1    6    8     3     6    0.000E+00   0.000E+00  0.000E+00  0.00E+00  0.00E+00  0.00E+00  1.06E+03  0.00E+00  6.15E+00  1.84E-01  1.00E+00
   1    5   10     4     1    1.000E+01   9.052E-01  9.095E+00  0.00E+00  0.00E+00  0.00E+00  1.08E+03  6.21E-01  1.00E+01  2.50E-01  1.21E+00
   1    5    9     4     2    9.095E+00   1.784E+00  7.311E+00  0.00E+00  0.00E+00  0.00E+00  1.07E+03  5.67E-01  1.00E+01  5.00E-01  1.19E+00
   1    6    8     4     3    7.311E+00   1.226E+00  6.086E+00  0.00E+00  0.00E+00  0.00E+00  1.06E+03  5.02E-01  1.00E+01  3.50E-01  1.17E+00
   1    6    8     5     1    6.086E+00   1.472E+00  4.614E+00  0.00E+00  0.00E+00  0.00E+00  1.06E+03  5.40E-01  1.04E+01  4.16E-01  1.18E+00
   1    7    7     5     2    4.614E+00   1.490E+00  3.124E+00  0.00E+00  0.00E+00  0.00E+00  1.05E+03  4.82E-01  8.56E+00  4.28E-01  1.16E+00
   1    8    7     5     3    3.124E+00   8.286E-01  2.296E+00  0.00E+00  0.00E+00  0.00E+00  1.05E+03  4.25E-01  6.91E+00  2.42E-01  1.14E+00
   1    8    6     5     4    2.296E+00   4.945E-01  1.801E+00  0.00E+00  0.00E+00  0.00E+00  1.05E+03  3.86E-01  5.84E+00  1.46E-01  1.13E+00
   1    9    6     6     1    1.801E+00   1.801E+00  0.000E+00  0.00E+00  0.00E+00  0.00E+00  1.04E+03  1.66E-01  1.20E+01  6.00E-01  1.03E+00
   1   10    7     6     2    0.000E+00   0.000E+00  0.000E+00  0.00E+00  0.00E+00  0.00E+00  1.04E+03  0.00E+00  1.20E+01  6.00E-01  1.00E+00
   1   11    7     6     3    0.000E+00   0.000E+00  0.000E+00  0.00E+00  0.00E+00  0.00E+00  1.03E+03  0.00E+00  1.20E+01  6.00E-01  1.00E+00
   1   12    7     6     4    0.000E+00   0.000E+00  0.000E+00  0.00E+00  0.00E+00  0.00E+00  1.03E+03  0.00E+00  1.20E+01  6.00E-01  1.00E+00
   1   13    7     6     5    0.000E+00  -2.277E-01  2.277E-01  0.00E+00  0.00E+00  0.00E+00  1.03E+03  4.81E-02  1.20E+01  2.40E-01 -3.16E-01
   1   14    9     7     1    1.500E+02   3.479E+00  1.465E+02  0.00E+00  0.00E+00  0.00E+00  1.04E+03  2.28E+00  5.53E+01  5.59E+00  2.07E-01
   1   13    8     7     2    1.465E+02   7.387E+00  1.391E+02  0.00E+00  0.00E+00  0.00E+00  1.03E+03  2.25E+00  5.51E+01  6.13E+00  4.01E-01
   1   13    7     7     3    1.391E+02   1.500E+01  1.241E+02  0.00E+00  0.00E+00  0.00E+00  1.03E+03  2.19E+00  5.49E+01  5.55E+00  9.02E-01
   1   13    6     8     1    1.244E+02   1.517E+01  1.092E+02  0.00E+00  0.00E+00  0.00E+00  1.02E+03  2.56E+00  3.72E+01  3.79E+00  1.33E+00
   1   13    5     8     2    1.092E+02   1.418E+01  9.501E+01  0.00E+00  0.00E+00  0.00E+00  1.02E+03  2.44E+00  3.54E+01  3.60E+00  1.31E+00
   1   13    4     8     3    9.501E+01   1.033E+01  8.469E+01  0.00E+00  0.00E+00  0.00E+00  1.01E+03  2.32E+00  3.37E+01  3.43E+00  1.00E+00
   1   13    3     8     4    8.469E+01   5.380E+00  7.931E+01  0.00E+00  0.00E+00  0.00E+00  1.01E+03  2.25E+00  3.26E+01  3.32E+00  5.40E-01
   1   13    2     8     5    7.931E+01   1.118E+00  7.819E+01  0.00E+00  0.00E+00  0.00E+00  9.99E+02  2.21E+00  3.21E+01  3.27E+00  1.14E-01
   1   13    1     8     6    7.819E+01   7.883E-01  7.740E+01  0.00E+00  0.00E+00  0.00E+00  9.94E+02  2.20E+00  3.19E+01  1.95E+00  1.35E-01



1
              HEAD IN LAYER   1 AT END OF TIME STEP   5 IN STRESS PERIOD    2
  ---------------------------------------------------------------------------

           1       2       3       4       5       6       7       8       9      10
 ...................................................................................
   1  1056.21 1033.35 6999.00 6999.00 6999.00 6999.00 6999.00 6999.00 6999.00 6999.00
   2  1035.50 1014.09  994.54 6999.00 6999.00  984.65  987.41  988.30 6999.00 6999.00
   3  6999.00  990.83  980.31  972.07  973.26  977.28  983.05  982.53 6999.00 6999.00
   4   970.26  970.19  966.14  959.89  958.48  958.31  964.79  978.00  974.87 6999.00
   5   961.70  955.14  951.33  949.35  950.18  952.97  955.84  961.16  968.98  979.17
   6   951.89  944.59  940.55  941.18  943.69  947.94  952.72  957.96  963.74  976.71
   7   946.48  938.87  935.04  937.08  940.86  946.01  951.43  954.41  962.60 6999.00
   8  6999.00  939.30  935.75  938.59  943.20  948.52  952.81  956.21  965.65 6999.00
   9  6999.00  947.54  944.41  947.13  951.34  956.29  959.67  964.68  974.63 6999.00
  10  6999.00  961.77  959.51  960.91  963.60  967.42  970.95  977.31  986.82  991.94
  11  6999.00  979.10  979.47  977.43  979.22  982.56  986.12  992.93 1000.29 6999.00
  12   993.80  993.45  995.47  993.99  996.50 1000.50 1004.90 1014.25 1019.97 6999.00
  13   993.67  998.75 1003.75 1008.69 1014.13 1020.44 1026.91 1033.55 1034.51 6999.00
  14  6999.00 1001.95 1005.81 1009.80 1014.80 1020.58 1027.38 1034.42 1039.24 6999.00
  15  6999.00 6999.00 1008.57 1011.40 1015.33 1018.84 6999.00 6999.00 6999.00 6999.00
1
  VOLUMETRIC BUDGET FOR ENTIRE MODEL AT END OF TIME STEP  5 IN STRESS PERIOD   2
  ------------------------------------------------------------------------------

     CUMULATIVE VOLUMES      L**3       RATES FOR THIS TIME STEP      L**3/T
     ------------------                 ------------------------

           IN:                                      IN:
           ---                                      ---
             STORAGE = 30226245600.0000               STORAGE =           0.8928
       CONSTANT HEAD =           0.0000         CONSTANT HEAD =           0.0000
               WELLS =           0.0000                 WELLS =           0.0000
                  ET =           0.0000                    ET =           0.0000
     HEAD DEP BOUNDS =   345661504.0000       HEAD DEP BOUNDS =           0.2189
            RECHARGE =  2845167360.0000              RECHARGE =           1.7937
      STREAM LEAKAGE =150465888000.0000        STREAM LEAKAGE =         107.8268

            TOTAL IN =183882957000.0000              TOTAL IN =         110.7322

          OUT:                                     OUT:
          ----                                     ----
             STORAGE =   803711680.0000               STORAGE =          96.0333
       CONSTANT HEAD =           0.0000         CONSTANT HEAD =           0.0000
               WELLS =157787963000.0000                 WELLS =           0.0000
                  ET = 24109488100.0000                    ET =          14.2690
     HEAD DEP BOUNDS =   353228992.0000       HEAD DEP BOUNDS =           0.2156
            RECHARGE =           0.0000              RECHARGE =           0.0000
      STREAM LEAKAGE =   832451904.0000        STREAM LEAKAGE =           0.2277

           TOTAL OUT =183886840000.0000             TOTAL OUT =         110.7456

            IN - OUT =    -3881344.0000              IN - OUT =      -1.3392E-02

 PERCENT DISCREPANCY =           0.00     PERCENT DISCREPANCY =          -0.01






          TIME SUMMARY AT END OF TIME STEP   5 IN STRESS PERIOD    2
                    SECONDS     MINUTES      HOURS       DAYS        YEARS
                    -----------------------------------------------------------
   TIME STEP LENGTH 1.98484E+06  33081.      551.34      22.973     6.28958E-02
 STRESS PERIOD TIME 8.27652E+06 1.37942E+05  2299.0      95.793     0.26227    
         TOTAL TIME 1.58616E+09 2.64359E+07 4.40599E+05  18358.      50.262    
1
 
 SOLVING FOR HEAD 
     6 ITERATIONS FOR TIME STEP   6 IN STRESS PERIOD    2

 MAXIMUM HEAD CHANGE FOR EACH ITERATION:

    HEAD CHANGE   HEAD CHANGE   HEAD CHANGE   HEAD CHANGE   HEAD CHANGE
  LAYER,ROW,COL LAYER,ROW,COL LAYER,ROW,COL LAYER,ROW,COL LAYER,ROW,COL
 ----------------------------------------------------------------------
      1.977        0.4704        0.1027        0.2167E-01    0.4478E-02
  (  1,  8,  4) (  1,  8,  4) (  1,  8,  4) (  1,  8,  4) (  1,  8,  4)
     0.8953E-03
  (  1,  8,  4)


 NO OUTPUT CONTROL FOR STRESS PERIOD    2   TIME STEP   6
 
 SOLVING FOR HEAD 
     6 ITERATIONS FOR TIME STEP   7 IN STRESS PERIOD    2

 MAXIMUM HEAD CHANGE FOR EACH ITERATION:

    HEAD CHANGE   HEAD CHANGE   HEAD CHANGE   HEAD CHANGE   HEAD CHANGE
  LAYER,ROW,COL LAYER,ROW,COL LAYER,ROW,COL LAYER,ROW,COL LAYER,ROW,COL
 ----------------------------------------------------------------------
      1.923        0.4697        0.1040        0.2203E-01    0.4559E-02
  (  1,  8,  4) (  1,  8,  4) (  1,  8,  4) (  1,  8,  4) (  1,  8,  4)
     0.9042E-03
  (  1,  8,  4)


 NO OUTPUT CONTROL FOR STRESS PERIOD    2   TIME STEP   7
 
 SOLVING FOR HEAD 
     6 ITERATIONS FOR TIME STEP   8 IN STRESS PERIOD    2

 MAXIMUM HEAD CHANGE FOR EACH ITERATION:

    HEAD CHANGE   HEAD CHANGE   HEAD CHANGE   HEAD CHANGE   HEAD CHANGE
  LAYER,ROW,COL LAYER,ROW,COL LAYER,ROW,COL LAYER,ROW,COL LAYER,ROW,COL
 ----------------------------------------------------------------------
      1.867        0.4703        0.1059        0.2255E-01    0.4674E-02
  (  1,  8,  4) (  1,  8,  4) (  1,  8,  4) (  1,  8,  4) (  1,  8,  4)
     0.9181E-03
  (  1,  8,  4)


 NO OUTPUT CONTROL FOR STRESS PERIOD    2   TIME STEP   8
 
 SOLVING FOR HEAD 
     6 ITERATIONS FOR TIME STEP   9 IN STRESS PERIOD    2

 MAXIMUM HEAD CHANGE FOR EACH ITERATION:

    HEAD CHANGE   HEAD CHANGE   HEAD CHANGE   HEAD CHANGE   HEAD CHANGE
  LAYER,ROW,COL LAYER,ROW,COL LAYER,ROW,COL LAYER,ROW,COL LAYER,ROW,COL
 ----------------------------------------------------------------------
      1.814        0.4733        0.1086        0.2330E-01    0.4839E-02
  (  1,  8,  4) (  1,  8,  4) (  1,  8,  4) (  1,  8,  4) (  1,  8,  4)
     0.9394E-03
  (  1,  8,  4)


 NO OUTPUT CONTROL FOR STRESS PERIOD    2   TIME STEP   9
 
 SOLVING FOR HEAD 
     6 ITERATIONS FOR TIME STEP  10 IN STRESS PERIOD    2

 MAXIMUM HEAD CHANGE FOR EACH ITERATION:

    HEAD CHANGE   HEAD CHANGE   HEAD CHANGE   HEAD CHANGE   HEAD CHANGE
  LAYER,ROW,COL LAYER,ROW,COL LAYER,ROW,COL LAYER,ROW,COL LAYER,ROW,COL
 ----------------------------------------------------------------------
      1.765        0.4793        0.1147        0.2473E-01    0.5149E-02
  (  1,  8,  4) (  1,  8,  4) (  1,  8,  5) (  1,  8,  5) (  1,  8,  5)
     0.9708E-03
  (  1,  8,  4)


 OUTPUT CONTROL FOR STRESS PERIOD    2   TIME STEP  10
    PRINT BUDGET
    PRINT HEAD FOR ALL LAYERS
    SAVE BUDGET
 UBUDSV SAVING "              ET" ON UNIT 59 AT TIME STEP 10, STRESS PERIOD    2

  HEAD DEP BOUNDS   PERIOD    2   STEP  10
 BOUNDARY      1   LAYER   1   ROW    13   COL     1   RATE   -0.217335    
 BOUNDARY      2   LAYER   1   ROW    14   COL     9   RATE    0.218852    



   STREAM LEAKAGE   PERIOD    2   STEP  10

 LAYER ROW COL. STREAM  RCH.  FLOW INTO    FLOW TO  FLOW OUT OF  OVRLND.   DIRECT    STREAM    STREAM    STREAM    STREAM  STREAMBED  STREAMBED
                SEG.NO.  NO.  STRM. RCH.   AQUIFER   STRM. RCH.  RUNOFF    PRECIP      ET       HEAD      DEPTH     WIDTH  CONDCTNC.   GRADIENT

   1    1    1     1     1    2.500E+01   2.401E+00  2.260E+01  0.00E+00  0.00E+00  0.00E+00  1.09E+03  1.16E+00  1.28E+01  5.77E-01  1.39E+00
   1    2    2     1     2    2.260E+01   3.511E+00  1.909E+01  0.00E+00  0.00E+00  0.00E+00  1.09E+03  1.11E+00  1.22E+01  8.53E-01  1.37E+00
   1    3    3     1     3    1.909E+01   2.753E+00  1.634E+01  0.00E+00  0.00E+00  0.00E+00  1.08E+03  1.06E+00  1.13E+01  6.78E-01  1.35E+00
   1    3    4     1     4    1.634E+01   2.331E+00  1.400E+01  0.00E+00  0.00E+00  0.00E+00  1.08E+03  1.02E+00  1.05E+01  5.80E-01  1.34E+00
   1    4    5     2     1    4.004E+00   2.588E+00  1.416E+00  0.00E+00  0.00E+00  0.00E+00  1.07E+03  3.18E-01  1.20E+01  7.80E-01  1.11E+00
   1    5    6     2     2    1.416E+00   1.416E+00  0.000E+00  0.00E+00  0.00E+00  0.00E+00  1.07E+03  1.42E-01  1.20E+01  6.00E-01  1.02E+00
   1    6    6     2     3    0.000E+00   0.000E+00  0.000E+00  0.00E+00  0.00E+00  0.00E+00  1.06E+03  0.00E+00  1.20E+01  6.00E-01  1.00E+00
   1    7    6     2     4    0.000E+00   0.000E+00  0.000E+00  0.00E+00  0.00E+00  0.00E+00  1.06E+03  0.00E+00  1.20E+01  6.00E-01  1.00E+00
   1    8    6     2     5    0.000E+00   0.000E+00  0.000E+00  0.00E+00  0.00E+00  0.00E+00  1.05E+03  0.00E+00  1.20E+01  6.00E-01  1.00E+00
   1    3    5     3     1    1.000E+01   2.825E+00  7.175E+00  0.00E+00  0.00E+00  0.00E+00  1.08E+03  1.91E+00  9.64E+00  7.23E-01  1.95E+00
   1    3    6     3     2    7.175E+00   2.491E+00  4.684E+00  0.00E+00  0.00E+00  0.00E+00  1.07E+03  1.73E+00  8.91E+00  6.68E-01  1.86E+00
   1    3    7     3     3    4.684E+00   1.972E+00  2.712E+00  0.00E+00  0.00E+00  0.00E+00  1.07E+03  1.55E+00  8.22E+00  5.55E-01  1.78E+00
   1    4    8     3     4    2.712E+00   2.257E+00  4.558E-01  0.00E+00  0.00E+00  0.00E+00  1.07E+03  1.36E+00  7.45E+00  6.71E-01  1.68E+00
   1    5    8     3     5    4.558E-01   4.558E-01  0.000E+00  0.00E+00  0.00E+00  0.00E+00  1.06E+03  1.16E+00  6.65E+00  4.99E-01  1.58E+00
   1    6    8     3     6    0.000E+00   0.000E+00  0.000E+00  0.00E+00  0.00E+00  0.00E+00  1.06E+03  0.00E+00  6.15E+00  1.84E-01  1.00E+00
   1    5   10     4     1    1.000E+01   9.052E-01  9.095E+00  0.00E+00  0.00E+00  0.00E+00  1.08E+03  6.21E-01  1.00E+01  2.50E-01  1.21E+00
   1    5    9     4     2    9.095E+00   1.784E+00  7.311E+00  0.00E+00  0.00E+00  0.00E+00  1.07E+03  5.67E-01  1.00E+01  5.00E-01  1.19E+00
   1    6    8     4     3    7.311E+00   1.226E+00  6.086E+00  0.00E+00  0.00E+00  0.00E+00  1.06E+03  5.02E-01  1.00E+01  3.50E-01  1.17E+00
   1    6    8     5     1    6.086E+00   1.472E+00  4.614E+00  0.00E+00  0.00E+00  0.00E+00  1.06E+03  5.40E-01  1.04E+01  4.16E-01  1.18E+00
   1    7    7     5     2    4.614E+00   1.490E+00  3.124E+00  0.00E+00  0.00E+00  0.00E+00  1.05E+03  4.82E-01  8.56E+00  4.28E-01  1.16E+00
   1    8    7     5     3    3.124E+00   8.286E-01  2.296E+00  0.00E+00  0.00E+00  0.00E+00  1.05E+03  4.25E-01  6.91E+00  2.42E-01  1.14E+00
   1    8    6     5     4    2.296E+00   4.945E-01  1.801E+00  0.00E+00  0.00E+00  0.00E+00  1.05E+03  3.86E-01  5.84E+00  1.46E-01  1.13E+00
   1    9    6     6     1    1.801E+00   1.801E+00  0.000E+00  0.00E+00  0.00E+00  0.00E+00  1.04E+03  1.66E-01  1.20E+01  6.00E-01  1.03E+00
   1   10    7     6     2    0.000E+00   0.000E+00  0.000E+00  0.00E+00  0.00E+00  0.00E+00  1.04E+03  0.00E+00  1.20E+01  6.00E-01  1.00E+00
   1   11    7     6     3    0.000E+00   0.000E+00  0.000E+00  0.00E+00  0.00E+00  0.00E+00  1.03E+03  0.00E+00  1.20E+01  6.00E-01  1.00E+00
   1   12    7     6     4    0.000E+00   0.000E+00  0.000E+00  0.00E+00  0.00E+00  0.00E+00  1.03E+03  0.00E+00  1.20E+01  6.00E-01  1.00E+00
   1   13    7     6     5    0.000E+00  -2.526E-01  2.526E-01  0.00E+00  0.00E+00  0.00E+00  1.03E+03  5.12E-02  1.20E+01  2.40E-01 -3.51E-01
   1   14    9     7     1    1.500E+02   3.477E+00  1.465E+02  0.00E+00  0.00E+00  0.00E+00  1.04E+03  2.28E+00  5.53E+01  5.59E+00  2.07E-01
   1   13    8     7     2    1.465E+02   7.304E+00  1.392E+02  0.00E+00  0.00E+00  0.00E+00  1.03E+03  2.25E+00  5.51E+01  6.13E+00  3.97E-01
   1   13    7     7     3    1.392E+02   1.442E+01  1.248E+02  0.00E+00  0.00E+00  0.00E+00  1.03E+03  2.19E+00  5.49E+01  5.55E+00  8.67E-01
   1   13    6     8     1    1.250E+02   1.430E+01  1.108E+02  0.00E+00  0.00E+00  0.00E+00  1.02E+03  2.57E+00  3.73E+01  3.80E+00  1.25E+00
   1   13    5     8     2    1.108E+02   1.299E+01  9.776E+01  0.00E+00  0.00E+00  0.00E+00  1.02E+03  2.46E+00  3.56E+01  3.63E+00  1.19E+00
   1   13    4     8     3    9.776E+01   9.298E+00  8.846E+01  0.00E+00  0.00E+00  0.00E+00  1.01E+03  2.36E+00  3.42E+01  3.48E+00  8.90E-01
   1   13    3     8     4    8.846E+01   4.883E+00  8.358E+01  0.00E+00  0.00E+00  0.00E+00  1.01E+03  2.29E+00  3.32E+01  3.38E+00  4.82E-01
   1   13    2     8     5    8.358E+01   1.058E+00  8.252E+01  0.00E+00  0.00E+00  0.00E+00  9.99E+02  2.26E+00  3.27E+01  3.34E+00  1.06E-01
   1   13    1     8     6    8.252E+01   8.028E-01  8.172E+01  0.00E+00  0.00E+00  0.00E+00  9.94E+02  2.25E+00  3.26E+01  1.99E+00  1.34E-01



1
              HEAD IN LAYER   1 AT END OF TIME STEP  10 IN STRESS PERIOD    2
  ---------------------------------------------------------------------------

           1       2       3       4       5       6       7       8       9      10
 ...................................................................................
   1  1056.13 1033.23 6999.00 6999.00 6999.00 6999.00 6999.00 6999.00 6999.00 6999.00
   2  1035.37 1013.97  994.59 6999.00 6999.00  984.52  987.24  988.10 6999.00 6999.00
   3  6999.00  990.85  981.01  973.54  974.72  978.14  983.26  982.41 6999.00 6999.00
   4   970.07  970.42  967.75  963.02  961.73  960.95  965.99  978.27  974.72 6999.00
   5   961.56  956.01  954.93  955.09  955.50  956.90  958.31  962.37  969.25  979.07
   6   951.78  946.31  946.84  950.11  951.63  953.64  956.11  959.73  964.00  976.57
   7   946.39  941.08  943.14  948.45  950.78  953.15  955.72  956.65  962.52 6999.00
   8  6999.00  941.21  944.38  950.98  953.84  956.32  957.94  957.68  965.56 6999.00
   9  6999.00  949.38  952.33  958.43  961.06  963.57  964.61  966.01  974.60 6999.00
  10  6999.00  963.28  965.49  969.46  971.18  973.17  974.92  978.61  986.93  991.87
  11  6999.00  979.91  982.58  982.58  984.02  986.26  988.67  993.77 1000.37 6999.00
  12   993.85  993.83  996.76  996.26  998.78 1002.29 1006.12 1014.62 1020.01 6999.00
  13   993.72  998.82 1003.97 1009.06 1014.50 1020.69 1027.01 1033.56 1034.52 6999.00
  14  6999.00 1001.97 1005.88 1009.92 1014.92 1020.67 1027.42 1034.43 1039.24 6999.00
  15  6999.00 6999.00 1008.57 1011.41 1015.34 1018.85 6999.00 6999.00 6999.00 6999.00
1
  VOLUMETRIC BUDGET FOR ENTIRE MODEL AT END OF TIME STEP 10 IN STRESS PERIOD   2
  ------------------------------------------------------------------------------

     CUMULATIVE VOLUMES      L**3       RATES FOR THIS TIME STEP      L**3/T
     ------------------                 ------------------------

           IN:                                      IN:
           ---                                      ---
             STORAGE = 30233241600.0000               STORAGE =           0.3379
       CONSTANT HEAD =           0.0000         CONSTANT HEAD =           0.0000
               WELLS =           0.0000                 WELLS =           0.0000
                  ET =           0.0000                    ET =           0.0000
     HEAD DEP BOUNDS =   348578784.0000       HEAD DEP BOUNDS =           0.2189
            RECHARGE =  2869076990.0000              RECHARGE =           1.7937
      STREAM LEAKAGE =151870341000.0000        STREAM LEAKAGE =         103.5342

            TOTAL IN =185321243000.0000              TOTAL IN =         105.8847

          OUT:                                     OUT:
          ----                                     ----
             STORAGE =  2043787010.0000               STORAGE =          90.8972
       CONSTANT HEAD =           0.0000         CONSTANT HEAD =           0.0000
               WELLS =157787963000.0000                 WELLS =           0.0000
                  ET = 24301447200.0000                    ET =          14.4986
     HEAD DEP BOUNDS =   356115552.0000       HEAD DEP BOUNDS =           0.2173
            RECHARGE =           0.0000              RECHARGE =           0.0000
      STREAM LEAKAGE =   835669120.0000        STREAM LEAKAGE =           0.2526

           TOTAL OUT =185324978000.0000             TOTAL OUT =         105.8658

            IN - OUT =    -3743744.0000              IN - OUT =       1.8897E-02

 PERCENT DISCREPANCY =           0.00     PERCENT DISCREPANCY =           0.02






          TIME SUMMARY AT END OF TIME STEP  10 IN STRESS PERIOD    2
                    SECONDS     MINUTES      HOURS       DAYS        YEARS
                    -----------------------------------------------------------
   TIME STEP LENGTH 3.19660E+06  53277.      887.95      36.998     0.10129    
 STRESS PERIOD TIME 2.16059E+07 3.60099E+05  6001.6      250.07     0.68465    
         TOTAL TIME 1.59949E+09 2.66581E+07 4.44302E+05  18513.      50.685    
1
 
 SOLVING FOR HEAD 
     7 ITERATIONS FOR TIME STEP  11 IN STRESS PERIOD    2

 MAXIMUM HEAD CHANGE FOR EACH ITERATION:

    HEAD CHANGE   HEAD CHANGE   HEAD CHANGE   HEAD CHANGE   HEAD CHANGE
  LAYER,ROW,COL LAYER,ROW,COL LAYER,ROW,COL LAYER,ROW,COL LAYER,ROW,COL
 ----------------------------------------------------------------------
      1.722        0.4887        0.1229        0.2678E-01    0.5593E-02
  (  1,  8,  4) (  1,  8,  4) (  1,  8,  5) (  1,  8,  5) (  1,  8,  5)
     0.1014E-02    0.3253E-03
  (  1,  8,  4) (  1,  8,  5)


 NO OUTPUT CONTROL FOR STRESS PERIOD    2   TIME STEP  11
 
 SOLVING FOR HEAD 
     7 ITERATIONS FOR TIME STEP  12 IN STRESS PERIOD    2

 MAXIMUM HEAD CHANGE FOR EACH ITERATION:

    HEAD CHANGE   HEAD CHANGE   HEAD CHANGE   HEAD CHANGE   HEAD CHANGE
  LAYER,ROW,COL LAYER,ROW,COL LAYER,ROW,COL LAYER,ROW,COL LAYER,ROW,COL
 ----------------------------------------------------------------------
      1.724        0.5076        0.1325        0.2924E-01    0.6126E-02
  (  1,  8,  3) (  1,  8,  5) (  1,  8,  5) (  1,  8,  5) (  1,  8,  5)
     0.1076E-02    0.3690E-03
  (  1,  8,  5) (  1,  8,  5)


 NO OUTPUT CONTROL FOR STRESS PERIOD    2   TIME STEP  12
 
 SOLVING FOR HEAD 
     7 ITERATIONS FOR TIME STEP  13 IN STRESS PERIOD    2

 MAXIMUM HEAD CHANGE FOR EACH ITERATION:

    HEAD CHANGE   HEAD CHANGE   HEAD CHANGE   HEAD CHANGE   HEAD CHANGE
  LAYER,ROW,COL LAYER,ROW,COL LAYER,ROW,COL LAYER,ROW,COL LAYER,ROW,COL
 ----------------------------------------------------------------------
      1.771        0.5324        0.1437        0.3218E-01    0.6764E-02
  (  1,  8,  3) (  1,  8,  5) (  1,  8,  5) (  1,  8,  5) (  1,  8,  5)
     0.1176E-02    0.4239E-03
  (  1,  7,  5) (  1,  7,  5)


 OUTPUT CONTROL FOR STRESS PERIOD    2   TIME STEP  13
    PRINT BUDGET
    PRINT HEAD FOR ALL LAYERS
    SAVE BUDGET
 UBUDSV SAVING "              ET" ON UNIT 59 AT TIME STEP 13, STRESS PERIOD    2

  HEAD DEP BOUNDS   PERIOD    2   STEP  13
 BOUNDARY      1   LAYER   1   ROW    13   COL     1   RATE   -0.219254    
 BOUNDARY      2   LAYER   1   ROW    14   COL     9   RATE    0.218807    



   STREAM LEAKAGE   PERIOD    2   STEP  13

 LAYER ROW COL. STREAM  RCH.  FLOW INTO    FLOW TO  FLOW OUT OF  OVRLND.   DIRECT    STREAM    STREAM    STREAM    STREAM  STREAMBED  STREAMBED
                SEG.NO.  NO.  STRM. RCH.   AQUIFER   STRM. RCH.  RUNOFF    PRECIP      ET       HEAD      DEPTH     WIDTH  CONDCTNC.   GRADIENT

   1    1    1     1     1    2.500E+01   2.401E+00  2.260E+01  0.00E+00  0.00E+00  0.00E+00  1.09E+03  1.16E+00  1.28E+01  5.77E-01  1.39E+00
   1    2    2     1     2    2.260E+01   3.511E+00  1.909E+01  0.00E+00  0.00E+00  0.00E+00  1.09E+03  1.11E+00  1.22E+01  8.53E-01  1.37E+00
   1    3    3     1     3    1.909E+01   2.753E+00  1.634E+01  0.00E+00  0.00E+00  0.00E+00  1.08E+03  1.06E+00  1.13E+01  6.78E-01  1.35E+00
   1    3    4     1     4    1.634E+01   2.331E+00  1.400E+01  0.00E+00  0.00E+00  0.00E+00  1.08E+03  1.02E+00  1.05E+01  5.80E-01  1.34E+00
   1    4    5     2     1    4.004E+00   2.588E+00  1.416E+00  0.00E+00  0.00E+00  0.00E+00  1.07E+03  3.18E-01  1.20E+01  7.80E-01  1.11E+00
   1    5    6     2     2    1.416E+00   1.416E+00  0.000E+00  0.00E+00  0.00E+00  0.00E+00  1.07E+03  1.42E-01  1.20E+01  6.00E-01  1.02E+00
   1    6    6     2     3    0.000E+00   0.000E+00  0.000E+00  0.00E+00  0.00E+00  0.00E+00  1.06E+03  0.00E+00  1.20E+01  6.00E-01  1.00E+00
   1    7    6     2     4    0.000E+00   0.000E+00  0.000E+00  0.00E+00  0.00E+00  0.00E+00  1.06E+03  0.00E+00  1.20E+01  6.00E-01  1.00E+00
   1    8    6     2     5    0.000E+00   0.000E+00  0.000E+00  0.00E+00  0.00E+00  0.00E+00  1.05E+03  0.00E+00  1.20E+01  6.00E-01  1.00E+00
   1    3    5     3     1    1.000E+01   2.825E+00  7.175E+00  0.00E+00  0.00E+00  0.00E+00  1.08E+03  1.91E+00  9.64E+00  7.23E-01  1.95E+00
   1    3    6     3     2    7.175E+00   2.491E+00  4.684E+00  0.00E+00  0.00E+00  0.00E+00  1.07E+03  1.73E+00  8.91E+00  6.68E-01  1.86E+00
   1    3    7     3     3    4.684E+00   1.972E+00  2.712E+00  0.00E+00  0.00E+00  0.00E+00  1.07E+03  1.55E+00  8.22E+00  5.55E-01  1.78E+00
   1    4    8     3     4    2.712E+00   2.257E+00  4.558E-01  0.00E+00  0.00E+00  0.00E+00  1.07E+03  1.36E+00  7.45E+00  6.71E-01  1.68E+00
   1    5    8     3     5    4.558E-01   4.558E-01  0.000E+00  0.00E+00  0.00E+00  0.00E+00  1.06E+03  1.16E+00  6.65E+00  4.99E-01  1.58E+00
   1    6    8     3     6    0.000E+00   0.000E+00  0.000E+00  0.00E+00  0.00E+00  0.00E+00  1.06E+03  0.00E+00  6.15E+00  1.84E-01  1.00E+00
   1    5   10     4     1    1.000E+01   9.052E-01  9.095E+00  0.00E+00  0.00E+00  0.00E+00  1.08E+03  6.21E-01  1.00E+01  2.50E-01  1.21E+00
   1    5    9     4     2    9.095E+00   1.784E+00  7.311E+00  0.00E+00  0.00E+00  0.00E+00  1.07E+03  5.67E-01  1.00E+01  5.00E-01  1.19E+00
   1    6    8     4     3    7.311E+00   1.226E+00  6.086E+00  0.00E+00  0.00E+00  0.00E+00  1.06E+03  5.02E-01  1.00E+01  3.50E-01  1.17E+00
   1    6    8     5     1    6.086E+00   1.472E+00  4.614E+00  0.00E+00  0.00E+00  0.00E+00  1.06E+03  5.40E-01  1.04E+01  4.16E-01  1.18E+00
   1    7    7     5     2    4.614E+00   1.490E+00  3.124E+00  0.00E+00  0.00E+00  0.00E+00  1.05E+03  4.82E-01  8.56E+00  4.28E-01  1.16E+00
   1    8    7     5     3    3.124E+00   8.286E-01  2.296E+00  0.00E+00  0.00E+00  0.00E+00  1.05E+03  4.25E-01  6.91E+00  2.42E-01  1.14E+00
   1    8    6     5     4    2.296E+00   4.945E-01  1.801E+00  0.00E+00  0.00E+00  0.00E+00  1.05E+03  3.86E-01  5.84E+00  1.46E-01  1.13E+00
   1    9    6     6     1    1.801E+00   1.801E+00  0.000E+00  0.00E+00  0.00E+00  0.00E+00  1.04E+03  1.66E-01  1.20E+01  6.00E-01  1.03E+00
   1   10    7     6     2    0.000E+00   0.000E+00  0.000E+00  0.00E+00  0.00E+00  0.00E+00  1.04E+03  0.00E+00  1.20E+01  6.00E-01  1.00E+00
   1   11    7     6     3    0.000E+00   0.000E+00  0.000E+00  0.00E+00  0.00E+00  0.00E+00  1.03E+03  0.00E+00  1.20E+01  6.00E-01  1.00E+00
   1   12    7     6     4    0.000E+00   0.000E+00  0.000E+00  0.00E+00  0.00E+00  0.00E+00  1.03E+03  0.00E+00  1.20E+01  6.00E-01  1.00E+00
   1   13    7     6     5    0.000E+00  -2.817E-01  2.817E-01  0.00E+00  0.00E+00  0.00E+00  1.03E+03  5.46E-02  1.20E+01  2.40E-01 -3.91E-01
   1   14    9     7     1    1.500E+02   3.471E+00  1.465E+02  0.00E+00  0.00E+00  0.00E+00  1.04E+03  2.28E+00  5.53E+01  5.59E+00  2.07E-01
   1   13    8     7     2    1.465E+02   7.176E+00  1.394E+02  0.00E+00  0.00E+00  0.00E+00  1.03E+03  2.25E+00  5.51E+01  6.13E+00  3.90E-01
   1   13    7     7     3    1.394E+02   1.375E+01  1.256E+02  0.00E+00  0.00E+00  0.00E+00  1.03E+03  2.20E+00  5.49E+01  5.55E+00  8.26E-01
   1   13    6     8     1    1.259E+02   1.344E+01  1.124E+02  0.00E+00  0.00E+00  0.00E+00  1.02E+03  2.58E+00  3.75E+01  3.82E+00  1.17E+00
   1   13    5     8     2    1.124E+02   1.197E+01  1.005E+02  0.00E+00  0.00E+00  0.00E+00  1.02E+03  2.48E+00  3.59E+01  3.66E+00  1.09E+00
   1   13    4     8     3    1.005E+02   8.421E+00  9.205E+01  0.00E+00  0.00E+00  0.00E+00  1.01E+03  2.39E+00  3.46E+01  3.52E+00  7.96E-01
   1   13    3     8     4    9.205E+01   4.368E+00  8.768E+01  0.00E+00  0.00E+00  0.00E+00  1.01E+03  2.32E+00  3.37E+01  3.43E+00  4.24E-01
   1   13    2     8     5    8.768E+01   9.611E-01  8.672E+01  0.00E+00  0.00E+00  0.00E+00  9.99E+02  2.30E+00  3.33E+01  3.40E+00  9.43E-02
   1   13    1     8     6    8.672E+01   8.018E-01  8.592E+01  0.00E+00  0.00E+00  0.00E+00  9.94E+02  2.29E+00  3.32E+01  2.03E+00  1.32E-01



1
              HEAD IN LAYER   1 AT END OF TIME STEP  13 IN STRESS PERIOD    2
  ---------------------------------------------------------------------------

           1       2       3       4       5       6       7       8       9      10
 ...................................................................................
   1  1056.08 1033.15 6999.00 6999.00 6999.00 6999.00 6999.00 6999.00 6999.00 6999.00
   2  1035.28 1014.02  995.06 6999.00 6999.00  984.57  987.18  987.96 6999.00 6999.00
   3  6999.00  991.26  982.35  975.61  976.92  979.78  984.04  982.56 6999.00 6999.00
   4   970.01  971.16  969.93  966.19  965.10  964.07  968.01  979.14  974.72 6999.00
   5   961.60  957.60  958.51  959.51  959.81  960.68  961.32  964.43  970.15  979.14
   6   951.89  948.81  951.93  955.80  957.00  958.26  959.74  962.38  964.89  976.47
   7   946.51  944.20  949.39  955.12  956.96  958.49  959.97  959.78  962.62 6999.00
   8  6999.00  944.24  951.15  958.02  960.30  962.00  962.74  960.21  965.61 6999.00
   9  6999.00  952.20  958.52  964.91  967.03  968.88  969.19  968.26  974.74 6999.00
  10  6999.00  965.53  970.23  974.64  976.07  977.56  978.71  980.60  987.30  991.84
  11  6999.00  981.25  985.38  986.11  987.46  989.38  991.34  995.17 1000.69 6999.00
  12   993.98  994.43  998.02  998.08 1000.64 1003.97 1007.52 1015.27 1020.16 6999.00
  13   993.77  998.89 1004.18 1009.37 1014.83 1020.94 1027.14 1033.58 1034.53 6999.00
  14  6999.00 1002.00 1005.99 1010.09 1015.10 1020.80 1027.49 1034.44 1039.24 6999.00
  15  6999.00 6999.00 1008.59 1011.44 1015.38 1018.87 6999.00 6999.00 6999.00 6999.00
1
  VOLUMETRIC BUDGET FOR ENTIRE MODEL AT END OF TIME STEP 13 IN STRESS PERIOD   2
  ------------------------------------------------------------------------------

     CUMULATIVE VOLUMES      L**3       RATES FOR THIS TIME STEP      L**3/T
     ------------------                 ------------------------

           IN:                                      IN:
           ---                                      ---
             STORAGE = 30235267100.0000               STORAGE =           0.1320
       CONSTANT HEAD =           0.0000         CONSTANT HEAD =           0.0000
               WELLS =           0.0000                 WELLS =           0.0000
                  ET =           0.0000                    ET =           0.0000
     HEAD DEP BOUNDS =   351125632.0000       HEAD DEP BOUNDS =           0.2188
            RECHARGE =  2889954300.0000              RECHARGE =           1.7937
      STREAM LEAKAGE =153042797000.0000        STREAM LEAKAGE =          99.3625

            TOTAL IN =186519142000.0000              TOTAL IN =         101.5071

          OUT:                                     OUT:
          ----                                     ----
             STORAGE =  3065475580.0000               STORAGE =          86.2815
       CONSTANT HEAD =           0.0000         CONSTANT HEAD =           0.0000
               WELLS =157787963000.0000                 WELLS =           0.0000
                  ET = 24471892000.0000                    ET =          14.7156
     HEAD DEP BOUNDS =   358660000.0000       HEAD DEP BOUNDS =           0.2193
            RECHARGE =           0.0000              RECHARGE =           0.0000
      STREAM LEAKAGE =   838833600.0000        STREAM LEAKAGE =           0.2817

           TOTAL OUT =186522829000.0000             TOTAL OUT =         101.4980

            IN - OUT =    -3680992.0000              IN - OUT =       9.0517E-03

 PERCENT DISCREPANCY =           0.00     PERCENT DISCREPANCY =           0.01






          TIME SUMMARY AT END OF TIME STEP  13 IN STRESS PERIOD    2
                    SECONDS     MINUTES      HOURS       DAYS        YEARS
                    -----------------------------------------------------------
   TIME STEP LENGTH 4.25468E+06  70911.      1181.9      49.244     0.13482    
 STRESS PERIOD TIME 3.32448E+07 5.54079E+05  9234.7      384.78      1.0535    
         TOTAL TIME 1.61112E+09 2.68521E+07 4.47535E+05  18647.      51.053    
1
 
 SOLVING FOR HEAD 
     7 ITERATIONS FOR TIME STEP  14 IN STRESS PERIOD    2

 MAXIMUM HEAD CHANGE FOR EACH ITERATION:

    HEAD CHANGE   HEAD CHANGE   HEAD CHANGE   HEAD CHANGE   HEAD CHANGE
  LAYER,ROW,COL LAYER,ROW,COL LAYER,ROW,COL LAYER,ROW,COL LAYER,ROW,COL
 ----------------------------------------------------------------------
      1.804        0.5603        0.1566        0.3569E-01    0.7554E-02
  (  1,  8,  3) (  1,  8,  5) (  1,  8,  5) (  1,  8,  5) (  1,  7,  5)
     0.1297E-02    0.4943E-03
  (  1,  7,  5) (  1,  7,  5)


 NO OUTPUT CONTROL FOR STRESS PERIOD    2   TIME STEP  14
 
 SOLVING FOR HEAD 
     7 ITERATIONS FOR TIME STEP  15 IN STRESS PERIOD    2

 MAXIMUM HEAD CHANGE FOR EACH ITERATION:

    HEAD CHANGE   HEAD CHANGE   HEAD CHANGE   HEAD CHANGE   HEAD CHANGE
  LAYER,ROW,COL LAYER,ROW,COL LAYER,ROW,COL LAYER,ROW,COL LAYER,ROW,COL
 ----------------------------------------------------------------------
      1.830        0.5910        0.1724        0.4018E-01    0.8564E-02
  (  1,  8,  3) (  1,  8,  5) (  1,  7,  5) (  1,  7,  5) (  1,  7,  5)
     0.1439E-02    0.5803E-03
  (  1,  7,  5) (  1,  7,  5)


 OUTPUT CONTROL FOR STRESS PERIOD    2   TIME STEP  15
    PRINT BUDGET
    PRINT HEAD FOR ALL LAYERS
    SAVE BUDGET
 UBUDSV SAVING "              ET" ON UNIT 59 AT TIME STEP 15, STRESS PERIOD    2

  HEAD DEP BOUNDS   PERIOD    2   STEP  15
 BOUNDARY      1   LAYER   1   ROW    13   COL     1   RATE   -0.220819    
 BOUNDARY      2   LAYER   1   ROW    14   COL     9   RATE    0.218742    



   STREAM LEAKAGE   PERIOD    2   STEP  15

 LAYER ROW COL. STREAM  RCH.  FLOW INTO    FLOW TO  FLOW OUT OF  OVRLND.   DIRECT    STREAM    STREAM    STREAM    STREAM  STREAMBED  STREAMBED
                SEG.NO.  NO.  STRM. RCH.   AQUIFER   STRM. RCH.  RUNOFF    PRECIP      ET       HEAD      DEPTH     WIDTH  CONDCTNC.   GRADIENT

   1    1    1     1     1    2.500E+01   2.401E+00  2.260E+01  0.00E+00  0.00E+00  0.00E+00  1.09E+03  1.16E+00  1.28E+01  5.77E-01  1.39E+00
   1    2    2     1     2    2.260E+01   3.511E+00  1.909E+01  0.00E+00  0.00E+00  0.00E+00  1.09E+03  1.11E+00  1.22E+01  8.53E-01  1.37E+00
   1    3    3     1     3    1.909E+01   2.753E+00  1.634E+01  0.00E+00  0.00E+00  0.00E+00  1.08E+03  1.06E+00  1.13E+01  6.78E-01  1.35E+00
   1    3    4     1     4    1.634E+01   2.331E+00  1.400E+01  0.00E+00  0.00E+00  0.00E+00  1.08E+03  1.02E+00  1.05E+01  5.80E-01  1.34E+00
   1    4    5     2     1    4.004E+00   2.588E+00  1.416E+00  0.00E+00  0.00E+00  0.00E+00  1.07E+03  3.18E-01  1.20E+01  7.80E-01  1.11E+00
   1    5    6     2     2    1.416E+00   1.416E+00  0.000E+00  0.00E+00  0.00E+00  0.00E+00  1.07E+03  1.42E-01  1.20E+01  6.00E-01  1.02E+00
   1    6    6     2     3    0.000E+00   0.000E+00  0.000E+00  0.00E+00  0.00E+00  0.00E+00  1.06E+03  0.00E+00  1.20E+01  6.00E-01  1.00E+00
   1    7    6     2     4    0.000E+00   0.000E+00  0.000E+00  0.00E+00  0.00E+00  0.00E+00  1.06E+03  0.00E+00  1.20E+01  6.00E-01  1.00E+00
   1    8    6     2     5    0.000E+00   0.000E+00  0.000E+00  0.00E+00  0.00E+00  0.00E+00  1.05E+03  0.00E+00  1.20E+01  6.00E-01  1.00E+00
   1    3    5     3     1    1.000E+01   2.825E+00  7.175E+00  0.00E+00  0.00E+00  0.00E+00  1.08E+03  1.91E+00  9.64E+00  7.23E-01  1.95E+00
   1    3    6     3     2    7.175E+00   2.491E+00  4.684E+00  0.00E+00  0.00E+00  0.00E+00  1.07E+03  1.73E+00  8.91E+00  6.68E-01  1.86E+00
   1    3    7     3     3    4.684E+00   1.972E+00  2.712E+00  0.00E+00  0.00E+00  0.00E+00  1.07E+03  1.55E+00  8.22E+00  5.55E-01  1.78E+00
   1    4    8     3     4    2.712E+00   2.257E+00  4.558E-01  0.00E+00  0.00E+00  0.00E+00  1.07E+03  1.36E+00  7.45E+00  6.71E-01  1.68E+00
   1    5    8     3     5    4.558E-01   4.558E-01  0.000E+00  0.00E+00  0.00E+00  0.00E+00  1.06E+03  1.16E+00  6.65E+00  4.99E-01  1.58E+00
   1    6    8     3     6    0.000E+00   0.000E+00  0.000E+00  0.00E+00  0.00E+00  0.00E+00  1.06E+03  0.00E+00  6.15E+00  1.84E-01  1.00E+00
   1    5   10     4     1    1.000E+01   9.052E-01  9.095E+00  0.00E+00  0.00E+00  0.00E+00  1.08E+03  6.21E-01  1.00E+01  2.50E-01  1.21E+00
   1    5    9     4     2    9.095E+00   1.784E+00  7.311E+00  0.00E+00  0.00E+00  0.00E+00  1.07E+03  5.67E-01  1.00E+01  5.00E-01  1.19E+00
   1    6    8     4     3    7.311E+00   1.226E+00  6.086E+00  0.00E+00  0.00E+00  0.00E+00  1.06E+03  5.02E-01  1.00E+01  3.50E-01  1.17E+00
   1    6    8     5     1    6.086E+00   1.472E+00  4.614E+00  0.00E+00  0.00E+00  0.00E+00  1.06E+03  5.40E-01  1.04E+01  4.16E-01  1.18E+00
   1    7    7     5     2    4.614E+00   1.490E+00  3.124E+00  0.00E+00  0.00E+00  0.00E+00  1.05E+03  4.82E-01  8.56E+00  4.28E-01  1.16E+00
   1    8    7     5     3    3.124E+00   8.286E-01  2.296E+00  0.00E+00  0.00E+00  0.00E+00  1.05E+03  4.25E-01  6.91E+00  2.42E-01  1.14E+00
   1    8    6     5     4    2.296E+00   4.945E-01  1.801E+00  0.00E+00  0.00E+00  0.00E+00  1.05E+03  3.86E-01  5.84E+00  1.46E-01  1.13E+00
   1    9    6     6     1    1.801E+00   1.801E+00  0.000E+00  0.00E+00  0.00E+00  0.00E+00  1.04E+03  1.66E-01  1.20E+01  6.00E-01  1.03E+00
   1   10    7     6     2    0.000E+00   0.000E+00  0.000E+00  0.00E+00  0.00E+00  0.00E+00  1.04E+03  0.00E+00  1.20E+01  6.00E-01  1.00E+00
   1   11    7     6     3    0.000E+00   0.000E+00  0.000E+00  0.00E+00  0.00E+00  0.00E+00  1.03E+03  0.00E+00  1.20E+01  6.00E-01  1.00E+00
   1   12    7     6     4    0.000E+00   0.000E+00  0.000E+00  0.00E+00  0.00E+00  0.00E+00  1.03E+03  0.00E+00  1.20E+01  6.00E-01  1.00E+00
   1   13    7     6     5    0.000E+00  -3.058E-01  3.058E-01  0.00E+00  0.00E+00  0.00E+00  1.03E+03  5.74E-02  1.20E+01  2.40E-01 -4.25E-01
   1   14    9     7     1    1.500E+02   3.461E+00  1.465E+02  0.00E+00  0.00E+00  0.00E+00  1.04E+03  2.28E+00  5.53E+01  5.59E+00  2.06E-01
   1   13    8     7     2    1.465E+02   7.052E+00  1.395E+02  0.00E+00  0.00E+00  0.00E+00  1.03E+03  2.25E+00  5.51E+01  6.13E+00  3.83E-01
   1   13    7     7     3    1.395E+02   1.319E+01  1.263E+02  0.00E+00  0.00E+00  0.00E+00  1.03E+03  2.20E+00  5.49E+01  5.55E+00  7.92E-01
   1   13    6     8     1    1.266E+02   1.277E+01  1.138E+02  0.00E+00  0.00E+00  0.00E+00  1.02E+03  2.59E+00  3.76E+01  3.83E+00  1.11E+00
   1   13    5     8     2    1.138E+02   1.121E+01  1.026E+02  0.00E+00  0.00E+00  0.00E+00  1.02E+03  2.49E+00  3.61E+01  3.68E+00  1.01E+00
   1   13    4     8     3    1.026E+02   7.766E+00  9.486E+01  0.00E+00  0.00E+00  0.00E+00  1.01E+03  2.41E+00  3.49E+01  3.56E+00  7.28E-01
   1   13    3     8     4    9.486E+01   3.962E+00  9.090E+01  0.00E+00  0.00E+00  0.00E+00  1.01E+03  2.35E+00  3.41E+01  3.48E+00  3.80E-01
   1   13    2     8     5    9.090E+01   8.733E-01  9.002E+01  0.00E+00  0.00E+00  0.00E+00  9.99E+02  2.33E+00  3.38E+01  3.44E+00  8.45E-02
   1   13    1     8     6    9.002E+01   7.955E-01  8.923E+01  0.00E+00  0.00E+00  0.00E+00  9.94E+02  2.32E+00  3.37E+01  2.06E+00  1.29E-01



1
              HEAD IN LAYER   1 AT END OF TIME STEP  15 IN STRESS PERIOD    2
  ---------------------------------------------------------------------------

           1       2       3       4       5       6       7       8       9      10
 ...................................................................................
   1  1056.03 1033.12 6999.00 6999.00 6999.00 6999.00 6999.00 6999.00 6999.00 6999.00
   2  1035.23 1014.24  995.75 6999.00 6999.00  984.77  987.23  987.88 6999.00 6999.00
   3  6999.00  991.90  983.84  977.65  979.11  981.55  985.09  982.93 6999.00 6999.00
   4   970.06  972.16  972.03  968.94  968.02  966.88  970.09  980.30  974.88 6999.00
   5   961.78  959.33  961.52  962.97  963.25  963.87  964.11  966.60  971.35  979.37
   6   952.16  951.29  955.82  959.90  960.96  961.90  962.90  964.98  966.12  976.42
   7   946.80  947.22  953.95  959.69  961.31  962.49  963.50  962.74  962.86 6999.00
   8  6999.00  947.37  956.01  962.74  964.74  966.13  966.53  962.87  965.76 6999.00
   9  6999.00  955.08  962.97  969.24  971.14  972.74  972.76  970.59  975.02 6999.00
  10  6999.00  967.79  973.70  978.17  979.49  980.79  981.68  982.56  987.84  991.86
  11  6999.00  982.64  987.50  988.60  989.94  991.73  993.48  996.55 1001.14 6999.00
  12   994.15  995.01  999.00  999.40 1002.01 1005.27 1008.67 1015.92 1020.38 6999.00
  13   993.81  998.95 1004.34 1009.60 1015.07 1021.13 1027.24 1033.60 1034.56 6999.00
  14  6999.00 1002.04 1006.11 1010.24 1015.27 1020.93 1027.57 1034.47 1039.24 6999.00
  15  6999.00 6999.00 1008.62 1011.49 1015.42 1018.91 6999.00 6999.00 6999.00 6999.00
1
  VOLUMETRIC BUDGET FOR ENTIRE MODEL AT END OF TIME STEP 15 IN STRESS PERIOD   2
  ------------------------------------------------------------------------------

     CUMULATIVE VOLUMES      L**3       RATES FOR THIS TIME STEP      L**3/T
     ------------------                 ------------------------

           IN:                                      IN:
           ---                                      ---
             STORAGE = 30236053500.0000               STORAGE =       6.5740E-02
       CONSTANT HEAD =           0.0000         CONSTANT HEAD =           0.0000
               WELLS =           0.0000                 WELLS =           0.0000
                  ET =           0.0000                    ET =           0.0000
     HEAD DEP BOUNDS =   353275680.0000       HEAD DEP BOUNDS =           0.2187
            RECHARGE =  2907583740.0000              RECHARGE =           1.7937
      STREAM LEAKAGE =153994985000.0000        STREAM LEAKAGE =          96.0795

            TOTAL IN =187491893000.0000              TOTAL IN =          98.1577

          OUT:                                     OUT:
          ----                                     ----
             STORAGE =  3887158020.0000               STORAGE =          82.7419
       CONSTANT HEAD =           0.0000         CONSTANT HEAD =           0.0000
               WELLS =157787963000.0000                 WELLS =           0.0000
                  ET = 24617766900.0000                    ET =          14.8831
     HEAD DEP BOUNDS =   360826496.0000       HEAD DEP BOUNDS =           0.2208
            RECHARGE =           0.0000              RECHARGE =           0.0000
      STREAM LEAKAGE =   841780736.0000        STREAM LEAKAGE =           0.3058

           TOTAL OUT =187495498000.0000             TOTAL OUT =          98.1516

            IN - OUT =    -3597152.0000              IN - OUT =       6.0492E-03

 PERCENT DISCREPANCY =           0.00     PERCENT DISCREPANCY =           0.01






          TIME SUMMARY AT END OF TIME STEP  15 IN STRESS PERIOD    2
                    SECONDS     MINUTES      HOURS       DAYS        YEARS
                    -----------------------------------------------------------
   TIME STEP LENGTH 5.14816E+06  85803.      1430.0      59.585     0.16314    
 STRESS PERIOD TIME 4.30731E+07 7.17885E+05  11965.      498.53      1.3649    
         TOTAL TIME 1.62095E+09 2.70159E+07 4.50265E+05  18761.      51.365    
1
 
 SOLVING FOR HEAD 
     7 ITERATIONS FOR TIME STEP  16 IN STRESS PERIOD    2

 MAXIMUM HEAD CHANGE FOR EACH ITERATION:

    HEAD CHANGE   HEAD CHANGE   HEAD CHANGE   HEAD CHANGE   HEAD CHANGE
  LAYER,ROW,COL LAYER,ROW,COL LAYER,ROW,COL LAYER,ROW,COL LAYER,ROW,COL
 ----------------------------------------------------------------------
      1.849        0.6304        0.1918        0.4552E-01    0.9769E-02
  (  1,  8,  3) (  1,  7,  5) (  1,  7,  5) (  1,  7,  5) (  1,  7,  5)
     0.1605E-02    0.6853E-03
  (  1,  7,  5) (  1,  7,  5)


 NO OUTPUT CONTROL FOR STRESS PERIOD    2   TIME STEP  16
 
 SOLVING FOR HEAD 
     7 ITERATIONS FOR TIME STEP  17 IN STRESS PERIOD    2

 MAXIMUM HEAD CHANGE FOR EACH ITERATION:

    HEAD CHANGE   HEAD CHANGE   HEAD CHANGE   HEAD CHANGE   HEAD CHANGE
  LAYER,ROW,COL LAYER,ROW,COL LAYER,ROW,COL LAYER,ROW,COL LAYER,ROW,COL
 ----------------------------------------------------------------------
      1.866        0.6731        0.2140        0.5184E-01    0.1120E-01
  (  1,  8,  3) (  1,  7,  5) (  1,  7,  5) (  1,  7,  5) (  1,  7,  5)
     0.1798E-02    0.8131E-03
  (  1,  7,  5) (  1,  7,  5)


 NO OUTPUT CONTROL FOR STRESS PERIOD    2   TIME STEP  17
 
 SOLVING FOR HEAD 
     7 ITERATIONS FOR TIME STEP  18 IN STRESS PERIOD    2

 MAXIMUM HEAD CHANGE FOR EACH ITERATION:

    HEAD CHANGE   HEAD CHANGE   HEAD CHANGE   HEAD CHANGE   HEAD CHANGE
  LAYER,ROW,COL LAYER,ROW,COL LAYER,ROW,COL LAYER,ROW,COL LAYER,ROW,COL
 ----------------------------------------------------------------------
      1.880        0.7189        0.2393        0.5928E-01    0.1290E-01
  (  1,  8,  3) (  1,  7,  5) (  1,  7,  5) (  1,  7,  5) (  1,  7,  5)
     0.2020E-02    0.9684E-03
  (  1,  7,  5) (  1,  7,  5)


 NO OUTPUT CONTROL FOR STRESS PERIOD    2   TIME STEP  18
 
 SOLVING FOR HEAD 
     8 ITERATIONS FOR TIME STEP  19 IN STRESS PERIOD    2

 MAXIMUM HEAD CHANGE FOR EACH ITERATION:

    HEAD CHANGE   HEAD CHANGE   HEAD CHANGE   HEAD CHANGE   HEAD CHANGE
  LAYER,ROW,COL LAYER,ROW,COL LAYER,ROW,COL LAYER,ROW,COL LAYER,ROW,COL
 ----------------------------------------------------------------------
      2.023        0.7672        0.2680        0.6802E-01    0.1492E-01
  (  1,  8,  2) (  1,  7,  5) (  1,  7,  5) (  1,  7,  5) (  1,  7,  5)
     0.2350E-02    0.1157E-02    0.3943E-03
  (  1,  7,  8) (  1,  7,  5) (  1,  7,  5)


 NO OUTPUT CONTROL FOR STRESS PERIOD    2   TIME STEP  19
 
 SOLVING FOR HEAD 
     8 ITERATIONS FOR TIME STEP  20 IN STRESS PERIOD    2

 MAXIMUM HEAD CHANGE FOR EACH ITERATION:

    HEAD CHANGE   HEAD CHANGE   HEAD CHANGE   HEAD CHANGE   HEAD CHANGE
  LAYER,ROW,COL LAYER,ROW,COL LAYER,ROW,COL LAYER,ROW,COL LAYER,ROW,COL
 ----------------------------------------------------------------------
      2.178        0.8174        0.3000        0.7823E-01    0.1731E-01
  (  1,  8,  2) (  1,  7,  5) (  1,  7,  5) (  1,  7,  5) (  1,  7,  5)
     0.2795E-02    0.1384E-02    0.4959E-03
  (  1,  7,  8) (  1,  7,  5) (  1,  7,  5)


 OUTPUT CONTROL FOR STRESS PERIOD    2   TIME STEP  20
    PRINT BUDGET
    PRINT HEAD FOR ALL LAYERS
    SAVE BUDGET
 UBUDSV SAVING "              ET" ON UNIT 59 AT TIME STEP 20, STRESS PERIOD    2

  HEAD DEP BOUNDS   PERIOD    2   STEP  20
 BOUNDARY      1   LAYER   1   ROW    13   COL     1   RATE   -0.225432    
 BOUNDARY      2   LAYER   1   ROW    14   COL     9   RATE    0.218404    



   STREAM LEAKAGE   PERIOD    2   STEP  20

 LAYER ROW COL. STREAM  RCH.  FLOW INTO    FLOW TO  FLOW OUT OF  OVRLND.   DIRECT    STREAM    STREAM    STREAM    STREAM  STREAMBED  STREAMBED
                SEG.NO.  NO.  STRM. RCH.   AQUIFER   STRM. RCH.  RUNOFF    PRECIP      ET       HEAD      DEPTH     WIDTH  CONDCTNC.   GRADIENT

   1    1    1     1     1    2.500E+01   2.401E+00  2.260E+01  0.00E+00  0.00E+00  0.00E+00  1.09E+03  1.16E+00  1.28E+01  5.77E-01  1.39E+00
   1    2    2     1     2    2.260E+01   3.511E+00  1.909E+01  0.00E+00  0.00E+00  0.00E+00  1.09E+03  1.11E+00  1.22E+01  8.53E-01  1.37E+00
   1    3    3     1     3    1.909E+01   2.753E+00  1.634E+01  0.00E+00  0.00E+00  0.00E+00  1.08E+03  1.06E+00  1.13E+01  6.78E-01  1.35E+00
   1    3    4     1     4    1.634E+01   2.331E+00  1.400E+01  0.00E+00  0.00E+00  0.00E+00  1.08E+03  1.02E+00  1.05E+01  5.80E-01  1.34E+00
   1    4    5     2     1    4.004E+00   2.588E+00  1.416E+00  0.00E+00  0.00E+00  0.00E+00  1.07E+03  3.18E-01  1.20E+01  7.80E-01  1.11E+00
   1    5    6     2     2    1.416E+00   1.416E+00  0.000E+00  0.00E+00  0.00E+00  0.00E+00  1.07E+03  1.42E-01  1.20E+01  6.00E-01  1.02E+00
   1    6    6     2     3    0.000E+00   0.000E+00  0.000E+00  0.00E+00  0.00E+00  0.00E+00  1.06E+03  0.00E+00  1.20E+01  6.00E-01  1.00E+00
   1    7    6     2     4    0.000E+00   0.000E+00  0.000E+00  0.00E+00  0.00E+00  0.00E+00  1.06E+03  0.00E+00  1.20E+01  6.00E-01  1.00E+00
   1    8    6     2     5    0.000E+00   0.000E+00  0.000E+00  0.00E+00  0.00E+00  0.00E+00  1.05E+03  0.00E+00  1.20E+01  6.00E-01  1.00E+00
   1    3    5     3     1    1.000E+01   2.825E+00  7.175E+00  0.00E+00  0.00E+00  0.00E+00  1.08E+03  1.91E+00  9.64E+00  7.23E-01  1.95E+00
   1    3    6     3     2    7.175E+00   2.491E+00  4.684E+00  0.00E+00  0.00E+00  0.00E+00  1.07E+03  1.73E+00  8.91E+00  6.68E-01  1.86E+00
   1    3    7     3     3    4.684E+00   1.972E+00  2.712E+00  0.00E+00  0.00E+00  0.00E+00  1.07E+03  1.55E+00  8.22E+00  5.55E-01  1.78E+00
   1    4    8     3     4    2.712E+00   2.257E+00  4.558E-01  0.00E+00  0.00E+00  0.00E+00  1.07E+03  1.36E+00  7.45E+00  6.71E-01  1.68E+00
   1    5    8     3     5    4.558E-01   4.558E-01  0.000E+00  0.00E+00  0.00E+00  0.00E+00  1.06E+03  1.16E+00  6.65E+00  4.99E-01  1.58E+00
   1    6    8     3     6    0.000E+00   0.000E+00  0.000E+00  0.00E+00  0.00E+00  0.00E+00  1.06E+03  0.00E+00  6.15E+00  1.84E-01  1.00E+00
   1    5   10     4     1    1.000E+01   9.052E-01  9.095E+00  0.00E+00  0.00E+00  0.00E+00  1.08E+03  6.21E-01  1.00E+01  2.50E-01  1.21E+00
   1    5    9     4     2    9.095E+00   1.784E+00  7.311E+00  0.00E+00  0.00E+00  0.00E+00  1.07E+03  5.67E-01  1.00E+01  5.00E-01  1.19E+00
   1    6    8     4     3    7.311E+00   1.226E+00  6.086E+00  0.00E+00  0.00E+00  0.00E+00  1.06E+03  5.02E-01  1.00E+01  3.50E-01  1.17E+00
   1    6    8     5     1    6.086E+00   1.472E+00  4.614E+00  0.00E+00  0.00E+00  0.00E+00  1.06E+03  5.40E-01  1.04E+01  4.16E-01  1.18E+00
   1    7    7     5     2    4.614E+00   1.490E+00  3.124E+00  0.00E+00  0.00E+00  0.00E+00  1.05E+03  4.82E-01  8.56E+00  4.28E-01  1.16E+00
   1    8    7     5     3    3.124E+00   8.286E-01  2.296E+00  0.00E+00  0.00E+00  0.00E+00  1.05E+03  4.25E-01  6.91E+00  2.42E-01  1.14E+00
   1    8    6     5     4    2.296E+00   4.945E-01  1.801E+00  0.00E+00  0.00E+00  0.00E+00  1.05E+03  3.86E-01  5.84E+00  1.46E-01  1.13E+00
   1    9    6     6     1    1.801E+00   1.801E+00  0.000E+00  0.00E+00  0.00E+00  0.00E+00  1.04E+03  1.66E-01  1.20E+01  6.00E-01  1.03E+00
   1   10    7     6     2    0.000E+00   0.000E+00  0.000E+00  0.00E+00  0.00E+00  0.00E+00  1.04E+03  0.00E+00  1.20E+01  6.00E-01  1.00E+00
   1   11    7     6     3    0.000E+00   0.000E+00  0.000E+00  0.00E+00  0.00E+00  0.00E+00  1.03E+03  0.00E+00  1.20E+01  6.00E-01  1.00E+00
   1   12    7     6     4    0.000E+00   0.000E+00  0.000E+00  0.00E+00  0.00E+00  0.00E+00  1.03E+03  0.00E+00  1.20E+01  6.00E-01  1.00E+00
   1   13    7     6     5    0.000E+00  -3.771E-01  3.771E-01  0.00E+00  0.00E+00  0.00E+00  1.03E+03  6.51E-02  1.20E+01  2.40E-01 -5.24E-01
   1   14    9     7     1    1.500E+02   3.412E+00  1.466E+02  0.00E+00  0.00E+00  0.00E+00  1.04E+03  2.28E+00  5.53E+01  5.59E+00  2.03E-01
   1   13    8     7     2    1.466E+02   6.622E+00  1.400E+02  0.00E+00  0.00E+00  0.00E+00  1.03E+03  2.26E+00  5.51E+01  6.13E+00  3.60E-01
   1   13    7     7     3    1.400E+02   1.155E+01  1.284E+02  0.00E+00  0.00E+00  0.00E+00  1.03E+03  2.21E+00  5.49E+01  5.55E+00  6.93E-01
   1   13    6     8     1    1.288E+02   1.088E+01  1.179E+02  0.00E+00  0.00E+00  0.00E+00  1.02E+03  2.62E+00  3.80E+01  3.87E+00  9.38E-01
   1   13    5     8     2    1.179E+02   9.111E+00  1.088E+02  0.00E+00  0.00E+00  0.00E+00  1.02E+03  2.54E+00  3.68E+01  3.75E+00  8.11E-01
   1   13    4     8     3    1.088E+02   5.983E+00  1.028E+02  0.00E+00  0.00E+00  0.00E+00  1.01E+03  2.47E+00  3.58E+01  3.65E+00  5.46E-01
   1   13    3     8     4    1.028E+02   2.814E+00  1.000E+02  0.00E+00  0.00E+00  0.00E+00  1.01E+03  2.43E+00  3.53E+01  3.59E+00  2.61E-01
   1   13    2     8     5    1.000E+02   5.841E-01  9.942E+01  0.00E+00  0.00E+00  0.00E+00  9.99E+02  2.42E+00  3.50E+01  3.57E+00  5.45E-02
   1   13    1     8     6    9.942E+01   7.552E-01  9.866E+01  0.00E+00  0.00E+00  0.00E+00  9.94E+02  2.41E+00  3.50E+01  2.14E+00  1.18E-01



1
              HEAD IN LAYER   1 AT END OF TIME STEP  20 IN STRESS PERIOD    2
  ---------------------------------------------------------------------------

           1       2       3       4       5       6       7       8       9      10
 ...................................................................................
   1  1055.99 1033.54 6999.00 6999.00 6999.00 6999.00 6999.00 6999.00 6999.00 6999.00
   2  1035.40 1016.25  999.78 6999.00 6999.00  986.64  988.39  988.22 6999.00 6999.00
   3  6999.00  995.83  990.35  985.62  987.57  989.00  990.54  986.09 6999.00 6999.00
   4   971.29  977.37  980.07  978.47  978.02  976.79  978.50  986.23  976.85 6999.00
   5   963.63  966.76  971.52  973.84  974.18  974.49  974.07  975.32  977.59  981.70
   6   954.42  960.78  967.52  971.81  972.70  973.22  973.56  974.72  972.67  976.60
   7   949.20  958.31  966.79  972.18  973.48  974.24  974.67  973.22  965.04 6999.00
   8  6999.00  959.47  969.20  975.08  976.66  977.69  977.75  972.96  967.36 6999.00
   9  6999.00  966.15  974.96  980.42  981.96  983.27  983.01  979.34  977.21 6999.00
  10  6999.00  976.39  983.19  987.31  988.49  989.59  990.18  989.48  990.82  992.42
  11  6999.00  987.95  993.42  995.12  996.50  998.18  999.66 1001.46 1003.67 6999.00
  12   994.95  997.06 1001.68 1002.93 1005.70 1008.89 1012.02 1018.18 1021.56 6999.00
  13   993.93  999.13 1004.77 1010.21 1015.73 1021.68 1027.55 1033.68 1034.70 6999.00
  14  6999.00 1002.25 1006.51 1010.77 1015.82 1021.38 1027.86 1034.56 1039.25 6999.00
  15  6999.00 6999.00 1008.81 1011.73 1015.69 1019.14 6999.00 6999.00 6999.00 6999.00
1
  VOLUMETRIC BUDGET FOR ENTIRE MODEL AT END OF TIME STEP 20 IN STRESS PERIOD   2
  ------------------------------------------------------------------------------

     CUMULATIVE VOLUMES      L**3       RATES FOR THIS TIME STEP      L**3/T
     ------------------                 ------------------------

           IN:                                      IN:
           ---                                      ---
             STORAGE = 30236434400.0000               STORAGE =           0.0000
       CONSTANT HEAD =           0.0000         CONSTANT HEAD =           0.0000
               WELLS =           0.0000                 WELLS =           0.0000
                  ET =           0.0000                    ET =           0.0000
     HEAD DEP BOUNDS =   360831584.0000       HEAD DEP BOUNDS =           0.2184
            RECHARGE =  2969599490.0000              RECHARGE =           1.7937
      STREAM LEAKAGE =157113663000.0000        STREAM LEAKAGE =          86.7143

            TOTAL IN =190680531000.0000              TOTAL IN =          88.7265

          OUT:                                     OUT:
          ----                                     ----
             STORAGE =  6530962430.0000               STORAGE =          72.7696
       CONSTANT HEAD =           0.0000         CONSTANT HEAD =           0.0000
               WELLS =157787963000.0000                 WELLS =           0.0000
                  ET = 25142419500.0000                    ET =          15.3464
     HEAD DEP BOUNDS =   368560576.0000       HEAD DEP BOUNDS =           0.2254
            RECHARGE =           0.0000              RECHARGE =           0.0000
      STREAM LEAKAGE =   853894720.0000        STREAM LEAKAGE =           0.3771

           TOTAL OUT =190683808000.0000             TOTAL OUT =          88.7185

            IN - OUT =    -3271584.0000              IN - OUT =       7.9324E-03

 PERCENT DISCREPANCY =           0.00     PERCENT DISCREPANCY =           0.01






          TIME SUMMARY AT END OF TIME STEP  20 IN STRESS PERIOD    2
                    SECONDS     MINUTES      HOURS       DAYS        YEARS
                    -----------------------------------------------------------
   TIME STEP LENGTH 8.29117E+06 1.38186E+05  2303.1      95.963     0.26273    
 STRESS PERIOD TIME 7.76461E+07 1.29410E+06  21568.      898.68      2.4605    
         TOTAL TIME 1.65553E+09 2.75921E+07 4.59868E+05  19161.      52.460    
1
 
 SOLVING FOR HEAD 
     8 ITERATIONS FOR TIME STEP  21 IN STRESS PERIOD    2

 MAXIMUM HEAD CHANGE FOR EACH ITERATION:

    HEAD CHANGE   HEAD CHANGE   HEAD CHANGE   HEAD CHANGE   HEAD CHANGE
  LAYER,ROW,COL LAYER,ROW,COL LAYER,ROW,COL LAYER,ROW,COL LAYER,ROW,COL
 ----------------------------------------------------------------------
      2.314        0.8694        0.3394        0.9009E-01    0.2021E-01
  (  1,  8,  2) (  1,  6,  5) (  1,  6,  5) (  1,  7,  5) (  1,  6,  5)
     0.3312E-02    0.1674E-02    0.6258E-03
  (  1,  7,  8) (  1,  6,  5) (  1,  7,  5)


 NO OUTPUT CONTROL FOR STRESS PERIOD    2   TIME STEP  21
 
 SOLVING FOR HEAD 
     8 ITERATIONS FOR TIME STEP  22 IN STRESS PERIOD    2

 MAXIMUM HEAD CHANGE FOR EACH ITERATION:

    HEAD CHANGE   HEAD CHANGE   HEAD CHANGE   HEAD CHANGE   HEAD CHANGE
  LAYER,ROW,COL LAYER,ROW,COL LAYER,ROW,COL LAYER,ROW,COL LAYER,ROW,COL
 ----------------------------------------------------------------------
      2.427        0.9303        0.3832        0.1038        0.2377E-01
  (  1,  8,  2) (  1,  6,  5) (  1,  6,  5) (  1,  7,  5) (  1,  6,  5)
     0.3902E-02    0.2024E-02    0.7897E-03
  (  1,  7,  8) (  1,  6,  5) (  1,  7,  5)


 NO OUTPUT CONTROL FOR STRESS PERIOD    2   TIME STEP  22
 
 SOLVING FOR HEAD 
     8 ITERATIONS FOR TIME STEP  23 IN STRESS PERIOD    2

 MAXIMUM HEAD CHANGE FOR EACH ITERATION:

    HEAD CHANGE   HEAD CHANGE   HEAD CHANGE   HEAD CHANGE   HEAD CHANGE
  LAYER,ROW,COL LAYER,ROW,COL LAYER,ROW,COL LAYER,ROW,COL LAYER,ROW,COL
 ----------------------------------------------------------------------
      2.514        0.9908        0.4314        0.1195        0.2796E-01
  (  1,  8,  2) (  1,  6,  5) (  1,  6,  5) (  1,  7,  5) (  1,  6,  5)
     0.4561E-02    0.2440E-02    0.9965E-03
  (  1,  7,  8) (  1,  6,  5) (  1,  7,  5)


 NO OUTPUT CONTROL FOR STRESS PERIOD    2   TIME STEP  23
 
 SOLVING FOR HEAD 
     9 ITERATIONS FOR TIME STEP  24 IN STRESS PERIOD    2

 MAXIMUM HEAD CHANGE FOR EACH ITERATION:

    HEAD CHANGE   HEAD CHANGE   HEAD CHANGE   HEAD CHANGE   HEAD CHANGE
  LAYER,ROW,COL LAYER,ROW,COL LAYER,ROW,COL LAYER,ROW,COL LAYER,ROW,COL
 ----------------------------------------------------------------------
      2.573         1.050        0.4835        0.1375        0.3287E-01
  (  1,  8,  2) (  1,  6,  5) (  1,  6,  5) (  1,  7,  5) (  1,  6,  5)
     0.5283E-02    0.2931E-02    0.1255E-02    0.3763E-03
  (  1,  7,  8) (  1,  6,  5) (  1,  7,  5) (  1,  6,  5)


 NO OUTPUT CONTROL FOR STRESS PERIOD    2   TIME STEP  24
 
 SOLVING FOR HEAD 
     9 ITERATIONS FOR TIME STEP  25 IN STRESS PERIOD    2

 MAXIMUM HEAD CHANGE FOR EACH ITERATION:

    HEAD CHANGE   HEAD CHANGE   HEAD CHANGE   HEAD CHANGE   HEAD CHANGE
  LAYER,ROW,COL LAYER,ROW,COL LAYER,ROW,COL LAYER,ROW,COL LAYER,ROW,COL
 ----------------------------------------------------------------------
      2.606         1.105        0.5395        0.1577        0.3859E-01
  (  1,  8,  2) (  1,  6,  5) (  1,  6,  5) (  1,  7,  5) (  1,  6,  5)
     0.6062E-02    0.3503E-02    0.1573E-02    0.4938E-03
  (  1,  7,  8) (  1,  6,  5) (  1,  7,  5) (  1,  6,  5)


 OUTPUT CONTROL FOR STRESS PERIOD    2   TIME STEP  25
    PRINT BUDGET
    PRINT HEAD FOR ALL LAYERS
    SAVE BUDGET
 UBUDSV SAVING "              ET" ON UNIT 59 AT TIME STEP 25, STRESS PERIOD    2

  HEAD DEP BOUNDS   PERIOD    2   STEP  25
 BOUNDARY      1   LAYER   1   ROW    13   COL     1   RATE   -0.230634    
 BOUNDARY      2   LAYER   1   ROW    14   COL     9   RATE    0.217792    



   STREAM LEAKAGE   PERIOD    2   STEP  25

 LAYER ROW COL. STREAM  RCH.  FLOW INTO    FLOW TO  FLOW OUT OF  OVRLND.   DIRECT    STREAM    STREAM    STREAM    STREAM  STREAMBED  STREAMBED
                SEG.NO.  NO.  STRM. RCH.   AQUIFER   STRM. RCH.  RUNOFF    PRECIP      ET       HEAD      DEPTH     WIDTH  CONDCTNC.   GRADIENT

   1    1    1     1     1    2.500E+01   2.401E+00  2.260E+01  0.00E+00  0.00E+00  0.00E+00  1.09E+03  1.16E+00  1.28E+01  5.77E-01  1.39E+00
   1    2    2     1     2    2.260E+01   3.511E+00  1.909E+01  0.00E+00  0.00E+00  0.00E+00  1.09E+03  1.11E+00  1.22E+01  8.53E-01  1.37E+00
   1    3    3     1     3    1.909E+01   2.753E+00  1.634E+01  0.00E+00  0.00E+00  0.00E+00  1.08E+03  1.06E+00  1.13E+01  6.78E-01  1.35E+00
   1    3    4     1     4    1.634E+01   2.331E+00  1.400E+01  0.00E+00  0.00E+00  0.00E+00  1.08E+03  1.02E+00  1.05E+01  5.80E-01  1.34E+00
   1    4    5     2     1    4.004E+00   2.588E+00  1.416E+00  0.00E+00  0.00E+00  0.00E+00  1.07E+03  3.18E-01  1.20E+01  7.80E-01  1.11E+00
   1    5    6     2     2    1.416E+00   1.416E+00  0.000E+00  0.00E+00  0.00E+00  0.00E+00  1.07E+03  1.42E-01  1.20E+01  6.00E-01  1.02E+00
   1    6    6     2     3    0.000E+00   0.000E+00  0.000E+00  0.00E+00  0.00E+00  0.00E+00  1.06E+03  0.00E+00  1.20E+01  6.00E-01  1.00E+00
   1    7    6     2     4    0.000E+00   0.000E+00  0.000E+00  0.00E+00  0.00E+00  0.00E+00  1.06E+03  0.00E+00  1.20E+01  6.00E-01  1.00E+00
   1    8    6     2     5    0.000E+00   0.000E+00  0.000E+00  0.00E+00  0.00E+00  0.00E+00  1.05E+03  0.00E+00  1.20E+01  6.00E-01  1.00E+00
   1    3    5     3     1    1.000E+01   2.825E+00  7.175E+00  0.00E+00  0.00E+00  0.00E+00  1.08E+03  1.91E+00  9.64E+00  7.23E-01  1.95E+00
   1    3    6     3     2    7.175E+00   2.491E+00  4.684E+00  0.00E+00  0.00E+00  0.00E+00  1.07E+03  1.73E+00  8.91E+00  6.68E-01  1.86E+00
   1    3    7     3     3    4.684E+00   1.972E+00  2.712E+00  0.00E+00  0.00E+00  0.00E+00  1.07E+03  1.55E+00  8.22E+00  5.55E-01  1.78E+00
   1    4    8     3     4    2.712E+00   2.257E+00  4.558E-01  0.00E+00  0.00E+00  0.00E+00  1.07E+03  1.36E+00  7.45E+00  6.71E-01  1.68E+00
   1    5    8     3     5    4.558E-01   4.558E-01  0.000E+00  0.00E+00  0.00E+00  0.00E+00  1.06E+03  1.16E+00  6.65E+00  4.99E-01  1.58E+00
   1    6    8     3     6    0.000E+00   0.000E+00  0.000E+00  0.00E+00  0.00E+00  0.00E+00  1.06E+03  0.00E+00  6.15E+00  1.84E-01  1.00E+00
   1    5   10     4     1    1.000E+01   9.052E-01  9.095E+00  0.00E+00  0.00E+00  0.00E+00  1.08E+03  6.21E-01  1.00E+01  2.50E-01  1.21E+00
   1    5    9     4     2    9.095E+00   1.784E+00  7.311E+00  0.00E+00  0.00E+00  0.00E+00  1.07E+03  5.67E-01  1.00E+01  5.00E-01  1.19E+00
   1    6    8     4     3    7.311E+00   1.226E+00  6.086E+00  0.00E+00  0.00E+00  0.00E+00  1.06E+03  5.02E-01  1.00E+01  3.50E-01  1.17E+00
   1    6    8     5     1    6.086E+00   1.472E+00  4.614E+00  0.00E+00  0.00E+00  0.00E+00  1.06E+03  5.40E-01  1.04E+01  4.16E-01  1.18E+00
   1    7    7     5     2    4.614E+00   1.490E+00  3.124E+00  0.00E+00  0.00E+00  0.00E+00  1.05E+03  4.82E-01  8.56E+00  4.28E-01  1.16E+00
   1    8    7     5     3    3.124E+00   8.286E-01  2.296E+00  0.00E+00  0.00E+00  0.00E+00  1.05E+03  4.25E-01  6.91E+00  2.42E-01  1.14E+00
   1    8    6     5     4    2.296E+00   4.945E-01  1.801E+00  0.00E+00  0.00E+00  0.00E+00  1.05E+03  3.86E-01  5.84E+00  1.46E-01  1.13E+00
   1    9    6     6     1    1.801E+00   1.801E+00  0.000E+00  0.00E+00  0.00E+00  0.00E+00  1.04E+03  1.66E-01  1.20E+01  6.00E-01  1.03E+00
   1   10    7     6     2    0.000E+00   0.000E+00  0.000E+00  0.00E+00  0.00E+00  0.00E+00  1.04E+03  0.00E+00  1.20E+01  6.00E-01  1.00E+00
   1   11    7     6     3    0.000E+00   0.000E+00  0.000E+00  0.00E+00  0.00E+00  0.00E+00  1.03E+03  0.00E+00  1.20E+01  6.00E-01  1.00E+00
   1   12    7     6     4    0.000E+00   0.000E+00  0.000E+00  0.00E+00  0.00E+00  0.00E+00  1.03E+03  0.00E+00  1.20E+01  6.00E-01  1.00E+00
   1   13    7     6     5    0.000E+00  -4.569E-01  4.569E-01  0.00E+00  0.00E+00  0.00E+00  1.03E+03  7.30E-02  1.20E+01  2.40E-01 -6.35E-01
   1   14    9     7     1    1.500E+02   3.324E+00  1.467E+02  0.00E+00  0.00E+00  0.00E+00  1.04E+03  2.28E+00  5.53E+01  5.59E+00  1.98E-01
   1   13    8     7     2    1.467E+02   6.060E+00  1.406E+02  0.00E+00  0.00E+00  0.00E+00  1.03E+03  2.26E+00  5.52E+01  6.14E+00  3.29E-01
   1   13    7     7     3    1.406E+02   9.713E+00  1.309E+02  0.00E+00  0.00E+00  0.00E+00  1.03E+03  2.21E+00  5.50E+01  5.56E+00  5.83E-01
   1   13    6     8     1    1.314E+02   8.828E+00  1.225E+02  0.00E+00  0.00E+00  0.00E+00  1.02E+03  2.65E+00  3.84E+01  3.91E+00  7.53E-01
   1   13    5     8     2    1.225E+02   6.852E+00  1.157E+02  0.00E+00  0.00E+00  0.00E+00  1.02E+03  2.58E+00  3.75E+01  3.82E+00  5.98E-01
   1   13    4     8     3    1.157E+02   4.060E+00  1.116E+02  0.00E+00  0.00E+00  0.00E+00  1.01E+03  2.54E+00  3.68E+01  3.75E+00  3.61E-01
   1   13    3     8     4    1.116E+02   1.551E+00  1.101E+02  0.00E+00  0.00E+00  0.00E+00  1.01E+03  2.51E+00  3.65E+01  3.72E+00  1.39E-01
   1   13    2     8     5    1.101E+02   2.246E-01  1.098E+02  0.00E+00  0.00E+00  0.00E+00  9.99E+02  2.51E+00  3.64E+01  3.70E+00  2.02E-02
   1   13    1     8     6    1.098E+02   6.857E-01  1.092E+02  0.00E+00  0.00E+00  0.00E+00  9.94E+02  2.50E+00  3.63E+01  2.22E+00  1.03E-01



1
              HEAD IN LAYER   1 AT END OF TIME STEP  25 IN STRESS PERIOD    2
  ---------------------------------------------------------------------------

           1       2       3       4       5       6       7       8       9      10
 ...................................................................................
   1  1056.59 1036.08 6999.00 6999.00 6999.00 6999.00 6999.00 6999.00 6999.00 6999.00
   2  1037.24 1022.37 1008.89 6999.00 6999.00  993.06  993.46  991.53 6999.00 6999.00
   3  6999.00 1004.92 1001.98  998.50 1000.84 1001.37 1001.26  994.84 6999.00 6999.00
   4   976.77  988.08  992.98  992.44  992.34  991.13  991.94  997.58  984.76 6999.00
   5   970.20  979.44  985.75  988.49  988.91  989.14  988.47  989.04  989.56  989.61
   6   962.00  975.07  982.59  986.72  987.53  987.95  988.12  988.94  985.13  978.65
   7   957.38  973.87  982.17  986.86  987.95  988.61  989.00  987.63  973.40 6999.00
   8  6999.00  976.42  984.19  988.86  990.14  991.06  991.16  986.77  973.50 6999.00
   9  6999.00  981.49  988.24  992.47  993.76  994.98  994.71  991.07  983.71 6999.00
  10  6999.00  988.18  993.62  997.01  998.13  999.18  999.68  998.46  996.76  994.96
  11  6999.00  995.15  999.90 1001.98 1003.46 1005.13 1006.51 1007.75 1008.46 6999.00
  12   996.26  999.69 1004.55 1006.64 1009.61 1012.79 1015.73 1021.02 1023.70 6999.00
  13   994.07  999.32 1005.22 1010.83 1016.41 1022.26 1027.89 1033.77 1034.97 6999.00
  14  6999.00 1002.60 1007.03 1011.40 1016.48 1021.95 1028.22 1034.69 1039.27 6999.00
  15  6999.00 6999.00 1009.25 1012.25 1016.23 1019.65 6999.00 6999.00 6999.00 6999.00
1
  VOLUMETRIC BUDGET FOR ENTIRE MODEL AT END OF TIME STEP 25 IN STRESS PERIOD   2
  ------------------------------------------------------------------------------

     CUMULATIVE VOLUMES      L**3       RATES FOR THIS TIME STEP      L**3/T
     ------------------                 ------------------------

           IN:                                      IN:
           ---                                      ---
             STORAGE = 30236434400.0000               STORAGE =           0.0000
       CONSTANT HEAD =           0.0000         CONSTANT HEAD =           0.0000
               WELLS =           0.0000                 WELLS =           0.0000
                  ET =           0.0000                    ET =           0.0000
     HEAD DEP BOUNDS =   372971712.0000       HEAD DEP BOUNDS =           0.2178
            RECHARGE =  3069475840.0000              RECHARGE =           1.7937
      STREAM LEAKAGE =161575600000.0000        STREAM LEAKAGE =          76.2980

            TOTAL IN =195254485000.0000              TOTAL IN =          78.3095

          OUT:                                     OUT:
          ----                                     ----
             STORAGE = 10196173800.0000               STORAGE =          61.7802
       CONSTANT HEAD =           0.0000         CONSTANT HEAD =           0.0000
               WELLS =157787963000.0000                 WELLS =           0.0000
                  ET = 26014373900.0000                    ET =          15.8405
     HEAD DEP BOUNDS =   381295968.0000       HEAD DEP BOUNDS =           0.2306
            RECHARGE =           0.0000              RECHARGE =           0.0000
      STREAM LEAKAGE =   877698816.0000        STREAM LEAKAGE =           0.4569

           TOTAL OUT =195257500000.0000             TOTAL OUT =          78.3083

            IN - OUT =    -3023776.0000              IN - OUT =       1.2496E-03

 PERCENT DISCREPANCY =           0.00     PERCENT DISCREPANCY =           0.00






          TIME SUMMARY AT END OF TIME STEP  25 IN STRESS PERIOD    2
                    SECONDS     MINUTES      HOURS       DAYS        YEARS
                    -----------------------------------------------------------
   TIME STEP LENGTH 1.33530E+07 2.22550E+05  3709.2      154.55     0.42313    
 STRESS PERIOD TIME 1.33326E+08 2.22211E+06  37035.      1543.1      4.2249    
         TOTAL TIME 1.71121E+09 2.85201E+07 4.75335E+05  19806.      54.225    
1
 
 SOLVING FOR HEAD 
     9 ITERATIONS FOR TIME STEP  26 IN STRESS PERIOD    2

 MAXIMUM HEAD CHANGE FOR EACH ITERATION:

    HEAD CHANGE   HEAD CHANGE   HEAD CHANGE   HEAD CHANGE   HEAD CHANGE
  LAYER,ROW,COL LAYER,ROW,COL LAYER,ROW,COL LAYER,ROW,COL LAYER,ROW,COL
 ----------------------------------------------------------------------
      2.613         1.157        0.5988        0.1805        0.4523E-01
  (  1,  8,  2) (  1,  6,  5) (  1,  6,  5) (  1,  7,  5) (  1,  6,  5)
     0.6908E-02    0.4165E-02    0.1965E-02    0.6449E-03
  (  1,  7,  8) (  1,  6,  5) (  1,  7,  5) (  1,  6,  5)


 NO OUTPUT CONTROL FOR STRESS PERIOD    2   TIME STEP  26
 
 SOLVING FOR HEAD 
    10 ITERATIONS FOR TIME STEP  27 IN STRESS PERIOD    2

 MAXIMUM HEAD CHANGE FOR EACH ITERATION:

    HEAD CHANGE   HEAD CHANGE   HEAD CHANGE   HEAD CHANGE   HEAD CHANGE
  LAYER,ROW,COL LAYER,ROW,COL LAYER,ROW,COL LAYER,ROW,COL LAYER,ROW,COL
 ----------------------------------------------------------------------
      2.600         1.203        0.6607        0.2060        0.5289E-01
  (  1,  8,  2) (  1,  6,  5) (  1,  6,  5) (  1,  6,  5) (  1,  6,  5)
     0.7841E-02    0.4925E-02    0.3152E-02   -0.2450E-02   -0.5197E-03
  (  1,  7,  8) (  1,  6,  5) (  1, 13,  7) (  1, 13,  7) (  1, 13,  7)


 NO OUTPUT CONTROL FOR STRESS PERIOD    2   TIME STEP  27
 
 SOLVING FOR HEAD 
    10 ITERATIONS FOR TIME STEP  28 IN STRESS PERIOD    2

 MAXIMUM HEAD CHANGE FOR EACH ITERATION:

    HEAD CHANGE   HEAD CHANGE   HEAD CHANGE   HEAD CHANGE   HEAD CHANGE
  LAYER,ROW,COL LAYER,ROW,COL LAYER,ROW,COL LAYER,ROW,COL LAYER,ROW,COL
 ----------------------------------------------------------------------
      2.908         1.243        0.7263        0.2346        0.6172E-01
  (  1,  7,  1) (  1,  6,  5) (  1,  5,  5) (  1,  6,  5) (  1,  6,  5)
     0.9704E-02    0.5814E-02    0.3015E-02    0.1091E-02    0.2560E-03
  (  1,  2,  3) (  1,  5,  5) (  1,  7,  5) (  1,  6,  5) (  1,  7,  5)


 NO OUTPUT CONTROL FOR STRESS PERIOD    2   TIME STEP  28
 
 SOLVING FOR HEAD 
    10 ITERATIONS FOR TIME STEP  29 IN STRESS PERIOD    2

 MAXIMUM HEAD CHANGE FOR EACH ITERATION:

    HEAD CHANGE   HEAD CHANGE   HEAD CHANGE   HEAD CHANGE   HEAD CHANGE
  LAYER,ROW,COL LAYER,ROW,COL LAYER,ROW,COL LAYER,ROW,COL LAYER,ROW,COL
 ----------------------------------------------------------------------
      3.304         1.277        0.7983        0.2659        0.7350E-01
  (  1,  7,  1) (  1,  5,  5) (  1,  5,  5) (  1,  6,  5) (  1,  3,  4)
     0.1198E-01    0.7116E-02    0.3704E-02    0.1412E-02    0.3313E-03
  (  1,  2,  3) (  1,  3,  4) (  1,  7,  5) (  1,  6,  5) (  1,  7,  5)


 NO OUTPUT CONTROL FOR STRESS PERIOD    2   TIME STEP  29
 
 SOLVING FOR HEAD 
    10 ITERATIONS FOR TIME STEP  30 IN STRESS PERIOD    2

 MAXIMUM HEAD CHANGE FOR EACH ITERATION:

    HEAD CHANGE   HEAD CHANGE   HEAD CHANGE   HEAD CHANGE   HEAD CHANGE
  LAYER,ROW,COL LAYER,ROW,COL LAYER,ROW,COL LAYER,ROW,COL LAYER,ROW,COL
 ----------------------------------------------------------------------
      3.666         1.314        0.8721        0.3004        0.9049E-01
  (  1,  7,  1) (  1,  6,  8) (  1,  5,  5) (  1,  6,  5) (  1,  2,  3)
     0.1465E-01    0.8669E-02    0.4529E-02    0.1823E-02    0.4299E-03
  (  1,  2,  3) (  1,  3,  4) (  1,  7,  5) (  1,  6,  5) (  1,  7,  5)


 OUTPUT CONTROL FOR STRESS PERIOD    2   TIME STEP  30
    PRINT BUDGET
    PRINT HEAD FOR ALL LAYERS
    SAVE BUDGET
 UBUDSV SAVING "              ET" ON UNIT 59 AT TIME STEP 30, STRESS PERIOD    2

  HEAD DEP BOUNDS   PERIOD    2   STEP  30
 BOUNDARY      1   LAYER   1   ROW    13   COL     1   RATE   -0.235890    
 BOUNDARY      2   LAYER   1   ROW    14   COL     9   RATE    0.217105    



   STREAM LEAKAGE   PERIOD    2   STEP  30

 LAYER ROW COL. STREAM  RCH.  FLOW INTO    FLOW TO  FLOW OUT OF  OVRLND.   DIRECT    STREAM    STREAM    STREAM    STREAM  STREAMBED  STREAMBED
                SEG.NO.  NO.  STRM. RCH.   AQUIFER   STRM. RCH.  RUNOFF    PRECIP      ET       HEAD      DEPTH     WIDTH  CONDCTNC.   GRADIENT

   1    1    1     1     1    2.500E+01   2.401E+00  2.260E+01  0.00E+00  0.00E+00  0.00E+00  1.09E+03  1.16E+00  1.28E+01  5.77E-01  1.39E+00
   1    2    2     1     2    2.260E+01   3.511E+00  1.909E+01  0.00E+00  0.00E+00  0.00E+00  1.09E+03  1.11E+00  1.22E+01  8.53E-01  1.37E+00
   1    3    3     1     3    1.909E+01   2.753E+00  1.634E+01  0.00E+00  0.00E+00  0.00E+00  1.08E+03  1.06E+00  1.13E+01  6.78E-01  1.35E+00
   1    3    4     1     4    1.634E+01   2.331E+00  1.400E+01  0.00E+00  0.00E+00  0.00E+00  1.08E+03  1.02E+00  1.05E+01  5.80E-01  1.34E+00
   1    4    5     2     1    4.004E+00   2.588E+00  1.416E+00  0.00E+00  0.00E+00  0.00E+00  1.07E+03  3.18E-01  1.20E+01  7.80E-01  1.11E+00
   1    5    6     2     2    1.416E+00   1.416E+00  0.000E+00  0.00E+00  0.00E+00  0.00E+00  1.07E+03  1.42E-01  1.20E+01  6.00E-01  1.02E+00
   1    6    6     2     3    0.000E+00   0.000E+00  0.000E+00  0.00E+00  0.00E+00  0.00E+00  1.06E+03  0.00E+00  1.20E+01  6.00E-01  1.00E+00
   1    7    6     2     4    0.000E+00   0.000E+00  0.000E+00  0.00E+00  0.00E+00  0.00E+00  1.06E+03  0.00E+00  1.20E+01  6.00E-01  1.00E+00
   1    8    6     2     5    0.000E+00   0.000E+00  0.000E+00  0.00E+00  0.00E+00  0.00E+00  1.05E+03  0.00E+00  1.20E+01  6.00E-01  1.00E+00
   1    3    5     3     1    1.000E+01   2.825E+00  7.175E+00  0.00E+00  0.00E+00  0.00E+00  1.08E+03  1.91E+00  9.64E+00  7.23E-01  1.95E+00
   1    3    6     3     2    7.175E+00   2.491E+00  4.684E+00  0.00E+00  0.00E+00  0.00E+00  1.07E+03  1.73E+00  8.91E+00  6.68E-01  1.86E+00
   1    3    7     3     3    4.684E+00   1.972E+00  2.712E+00  0.00E+00  0.00E+00  0.00E+00  1.07E+03  1.55E+00  8.22E+00  5.55E-01  1.78E+00
   1    4    8     3     4    2.712E+00   2.257E+00  4.558E-01  0.00E+00  0.00E+00  0.00E+00  1.07E+03  1.36E+00  7.45E+00  6.71E-01  1.68E+00
   1    5    8     3     5    4.558E-01   4.558E-01  0.000E+00  0.00E+00  0.00E+00  0.00E+00  1.06E+03  1.16E+00  6.65E+00  4.99E-01  1.58E+00
   1    6    8     3     6    0.000E+00   0.000E+00  0.000E+00  0.00E+00  0.00E+00  0.00E+00  1.06E+03  0.00E+00  6.15E+00  1.84E-01  1.00E+00
   1    5   10     4     1    1.000E+01   9.052E-01  9.095E+00  0.00E+00  0.00E+00  0.00E+00  1.08E+03  6.21E-01  1.00E+01  2.50E-01  1.21E+00
   1    5    9     4     2    9.095E+00   1.784E+00  7.311E+00  0.00E+00  0.00E+00  0.00E+00  1.07E+03  5.67E-01  1.00E+01  5.00E-01  1.19E+00
   1    6    8     4     3    7.311E+00   1.226E+00  6.086E+00  0.00E+00  0.00E+00  0.00E+00  1.06E+03  5.02E-01  1.00E+01  3.50E-01  1.17E+00
   1    6    8     5     1    6.086E+00   1.472E+00  4.614E+00  0.00E+00  0.00E+00  0.00E+00  1.06E+03  5.40E-01  1.04E+01  4.16E-01  1.18E+00
   1    7    7     5     2    4.614E+00   1.490E+00  3.124E+00  0.00E+00  0.00E+00  0.00E+00  1.05E+03  4.82E-01  8.56E+00  4.28E-01  1.16E+00
   1    8    7     5     3    3.124E+00   8.286E-01  2.296E+00  0.00E+00  0.00E+00  0.00E+00  1.05E+03  4.25E-01  6.91E+00  2.42E-01  1.14E+00
   1    8    6     5     4    2.296E+00   4.945E-01  1.801E+00  0.00E+00  0.00E+00  0.00E+00  1.05E+03  3.86E-01  5.84E+00  1.46E-01  1.13E+00
   1    9    6     6     1    1.801E+00   1.801E+00  0.000E+00  0.00E+00  0.00E+00  0.00E+00  1.04E+03  1.66E-01  1.20E+01  6.00E-01  1.03E+00
   1   10    7     6     2    0.000E+00   0.000E+00  0.000E+00  0.00E+00  0.00E+00  0.00E+00  1.04E+03  0.00E+00  1.20E+01  6.00E-01  1.00E+00
   1   11    7     6     3    0.000E+00   0.000E+00  0.000E+00  0.00E+00  0.00E+00  0.00E+00  1.03E+03  0.00E+00  1.20E+01  6.00E-01  1.00E+00
   1   12    7     6     4    0.000E+00   0.000E+00  0.000E+00  0.00E+00  0.00E+00  0.00E+00  1.03E+03  0.00E+00  1.20E+01  6.00E-01  1.00E+00
   1   13    7     6     5    0.000E+00  -5.381E-01  5.381E-01  0.00E+00  0.00E+00  0.00E+00  1.03E+03  8.05E-02  1.20E+01  2.40E-01 -7.47E-01
   1   14    9     7     1    1.500E+02   3.224E+00  1.468E+02  0.00E+00  0.00E+00  0.00E+00  1.04E+03  2.28E+00  5.53E+01  5.59E+00  1.92E-01
   1   13    8     7     2    1.468E+02   5.451E+00  1.413E+02  0.00E+00  0.00E+00  0.00E+00  1.03E+03  2.26E+00  5.52E+01  6.14E+00  2.96E-01
   1   13    7     7     3    1.413E+02   7.847E+00  1.335E+02  0.00E+00  0.00E+00  0.00E+00  1.03E+03  2.22E+00  5.50E+01  5.56E+00  4.70E-01
   1   13    6     8     1    1.340E+02   6.666E+00  1.273E+02  0.00E+00  0.00E+00  0.00E+00  1.02E+03  2.67E+00  3.88E+01  3.95E+00  5.62E-01
   1   13    5     8     2    1.273E+02   4.454E+00  1.229E+02  0.00E+00  0.00E+00  0.00E+00  1.02E+03  2.63E+00  3.82E+01  3.89E+00  3.82E-01
   1   13    4     8     3    1.229E+02   2.008E+00  1.209E+02  0.00E+00  0.00E+00  0.00E+00  1.01E+03  2.61E+00  3.78E+01  3.85E+00  1.74E-01
   1   13    3     8     4    1.209E+02   2.024E-01  1.207E+02  0.00E+00  0.00E+00  0.00E+00  1.01E+03  2.60E+00  3.77E+01  3.84E+00  1.76E-02
   1   13    2     8     5    1.207E+02  -1.671E-01  1.209E+02  0.00E+00  0.00E+00  0.00E+00  9.99E+02  2.60E+00  3.77E+01  3.84E+00 -1.45E-02
   1   13    1     8     6    1.209E+02   6.042E-01  1.202E+02  0.00E+00  0.00E+00  0.00E+00  9.94E+02  2.60E+00  3.76E+01  2.30E+00  8.75E-02



1
              HEAD IN LAYER   1 AT END OF TIME STEP  30 IN STRESS PERIOD    2
  ---------------------------------------------------------------------------

           1       2       3       4       5       6       7       8       9      10
 ...................................................................................
   1  1060.08 1043.82 6999.00 6999.00 6999.00 6999.00 6999.00 6999.00 6999.00 6999.00
   2  1043.91 1034.93 1024.46 6999.00 6999.00 1008.50 1007.35 1003.58 6999.00 6999.00
   3  6999.00 1020.62 1019.30 1016.47 1018.86 1018.75 1017.80 1010.91 6999.00 6999.00
   4   991.90 1005.35 1011.06 1010.84 1010.81 1009.62 1010.10 1014.64 1003.55 6999.00
   5   986.74  997.77 1004.32 1006.89 1007.28 1007.48 1006.78 1007.22 1007.31 1005.92
   6   980.63  993.90 1001.08 1004.66 1005.35 1005.79 1006.03 1006.92 1002.97  990.00
   7   977.51  992.81 1000.04 1003.84 1004.74 1005.40 1005.99 1005.20  994.13 6999.00
   8  6999.00  995.32 1000.78 1004.23 1005.26 1006.14 1006.40 1003.00  990.47 6999.00
   9  6999.00  998.06 1002.50 1005.55 1006.64 1007.82 1007.60 1004.53  996.80 6999.00
  10  6999.00 1000.84 1004.63 1007.33 1008.42 1009.46 1009.91 1008.67 1005.72 1001.76
  11  6999.00 1002.92 1006.68 1009.20 1010.80 1012.47 1013.73 1014.76 1014.95 6999.00
  12   997.74 1002.51 1007.54 1010.51 1013.69 1016.83 1019.45 1024.11 1026.47 6999.00
  13   994.21  999.52 1005.67 1011.46 1017.11 1022.86 1028.23 1033.87 1035.28 6999.00
  14  6999.00 1003.03 1007.60 1012.09 1017.20 1022.57 1028.59 1034.82 1039.29 6999.00
  15  6999.00 6999.00 1009.96 1013.03 1017.03 1020.41 6999.00 6999.00 6999.00 6999.00
1
  VOLUMETRIC BUDGET FOR ENTIRE MODEL AT END OF TIME STEP 30 IN STRESS PERIOD   2
  ------------------------------------------------------------------------------

     CUMULATIVE VOLUMES      L**3       RATES FOR THIS TIME STEP      L**3/T
     ------------------                 ------------------------

           IN:                                      IN:
           ---                                      ---
             STORAGE = 30236434400.0000               STORAGE =           0.0000
       CONSTANT HEAD =           0.0000         CONSTANT HEAD =           0.0000
               WELLS =           0.0000                 WELLS =           0.0000
                  ET =           0.0000                    ET =           0.0000
     HEAD DEP BOUNDS =   392462688.0000       HEAD DEP BOUNDS =           0.2171
            RECHARGE =  3230328060.0000              RECHARGE =           1.7937
      STREAM LEAKAGE =167794803000.0000        STREAM LEAKAGE =          65.4565

            TOTAL IN =201654026000.0000              TOTAL IN =          67.4674

          OUT:                                     OUT:
          ----                                     ----
             STORAGE = 15054796800.0000               STORAGE =          49.7505
       CONSTANT HEAD =           0.0000         CONSTANT HEAD =           0.0000
               WELLS =157787963000.0000                 WELLS =           0.0000
                  ET = 27483111400.0000                    ET =          16.7741
     HEAD DEP BOUNDS =   402280032.0000       HEAD DEP BOUNDS =           0.2359
            RECHARGE =           0.0000              RECHARGE =           0.0000
      STREAM LEAKAGE =   928813248.0000        STREAM LEAKAGE =           0.7052

           TOTAL OUT =201656959000.0000             TOTAL OUT =          67.4656

            IN - OUT =    -2937024.0000              IN - OUT =       1.7747E-03

 PERCENT DISCREPANCY =           0.00     PERCENT DISCREPANCY =           0.00






          TIME SUMMARY AT END OF TIME STEP  30 IN STRESS PERIOD    2
                    SECONDS     MINUTES      HOURS       DAYS        YEARS
                    -----------------------------------------------------------
   TIME STEP LENGTH 2.15052E+07 3.58419E+05  5973.7      248.90     0.68146    
 STRESS PERIOD TIME 2.23000E+08 3.71667E+06  61944.      2581.0      7.0664    
         TOTAL TIME 1.80088E+09 3.00147E+07 5.00244E+05  20844.      57.066    
1
 
 SOLVING FOR HEAD 
    10 ITERATIONS FOR TIME STEP  31 IN STRESS PERIOD    2

 MAXIMUM HEAD CHANGE FOR EACH ITERATION:

    HEAD CHANGE   HEAD CHANGE   HEAD CHANGE   HEAD CHANGE   HEAD CHANGE
  LAYER,ROW,COL LAYER,ROW,COL LAYER,ROW,COL LAYER,ROW,COL LAYER,ROW,COL
 ----------------------------------------------------------------------
      3.966         1.360        0.9470        0.3382        0.1106    
  (  1,  7,  1) (  1,  6,  8) (  1,  5,  5) (  1,  6,  5) (  1,  2,  3)
     0.1773E-01    0.1048E-01    0.5520E-02    0.2350E-02    0.5617E-03
  (  1,  2,  3) (  1,  3,  4) (  1,  7,  5) (  1,  6,  5) (  1,  7,  5)


 NO OUTPUT CONTROL FOR STRESS PERIOD    2   TIME STEP  31
 
 SOLVING FOR HEAD 
    10 ITERATIONS FOR TIME STEP  32 IN STRESS PERIOD    2

 MAXIMUM HEAD CHANGE FOR EACH ITERATION:

    HEAD CHANGE   HEAD CHANGE   HEAD CHANGE   HEAD CHANGE   HEAD CHANGE
  LAYER,ROW,COL LAYER,ROW,COL LAYER,ROW,COL LAYER,ROW,COL LAYER,ROW,COL
 ----------------------------------------------------------------------
      4.181         1.400         1.022        0.3794        0.1341    
  (  1,  7,  1) (  1,  6,  8) (  1,  5,  5) (  1,  6,  5) (  1,  2,  3)
     0.2128E-01    0.1259E-01    0.6698E-02    0.3012E-02    0.7284E-03
  (  1,  2,  3) (  1,  3,  4) (  1,  7,  5) (  1,  6,  5) (  1,  7,  5)


 NO OUTPUT CONTROL FOR STRESS PERIOD    2   TIME STEP  32
 
 SOLVING FOR HEAD 
    10 ITERATIONS FOR TIME STEP  33 IN STRESS PERIOD    2

 MAXIMUM HEAD CHANGE FOR EACH ITERATION:

    HEAD CHANGE   HEAD CHANGE   HEAD CHANGE   HEAD CHANGE   HEAD CHANGE
  LAYER,ROW,COL LAYER,ROW,COL LAYER,ROW,COL LAYER,ROW,COL LAYER,ROW,COL
 ----------------------------------------------------------------------
      4.299         1.433         1.096        0.4236        0.1614    
  (  1,  7,  1) (  1,  6,  8) (  1,  5,  5) (  1,  6,  5) (  1,  2,  3)
     0.2531E-01    0.1504E-01    0.8127E-02    0.3916E-02    0.9520E-03
  (  1,  2,  3) (  1,  3,  4) (  1,  7,  5) (  1,  3,  4) (  1,  7,  5)


 OUTPUT CONTROL FOR STRESS PERIOD    2   TIME STEP  33
    PRINT BUDGET
    PRINT HEAD FOR ALL LAYERS
    SAVE BUDGET
 UBUDSV SAVING "              ET" ON UNIT 59 AT TIME STEP 33, STRESS PERIOD    2

  HEAD DEP BOUNDS   PERIOD    2   STEP  33
 BOUNDARY      1   LAYER   1   ROW    13   COL     1   RATE   -0.238904    
 BOUNDARY      2   LAYER   1   ROW    14   COL     9   RATE    0.216682    



   STREAM LEAKAGE   PERIOD    2   STEP  33

 LAYER ROW COL. STREAM  RCH.  FLOW INTO    FLOW TO  FLOW OUT OF  OVRLND.   DIRECT    STREAM    STREAM    STREAM    STREAM  STREAMBED  STREAMBED
                SEG.NO.  NO.  STRM. RCH.   AQUIFER   STRM. RCH.  RUNOFF    PRECIP      ET       HEAD      DEPTH     WIDTH  CONDCTNC.   GRADIENT

   1    1    1     1     1    2.500E+01   2.401E+00  2.260E+01  0.00E+00  0.00E+00  0.00E+00  1.09E+03  1.16E+00  1.28E+01  5.77E-01  1.39E+00
   1    2    2     1     2    2.260E+01   3.511E+00  1.909E+01  0.00E+00  0.00E+00  0.00E+00  1.09E+03  1.11E+00  1.22E+01  8.53E-01  1.37E+00
   1    3    3     1     3    1.909E+01   2.753E+00  1.634E+01  0.00E+00  0.00E+00  0.00E+00  1.08E+03  1.06E+00  1.13E+01  6.78E-01  1.35E+00
   1    3    4     1     4    1.634E+01   2.331E+00  1.400E+01  0.00E+00  0.00E+00  0.00E+00  1.08E+03  1.02E+00  1.05E+01  5.80E-01  1.34E+00
   1    4    5     2     1    4.004E+00   2.588E+00  1.416E+00  0.00E+00  0.00E+00  0.00E+00  1.07E+03  3.18E-01  1.20E+01  7.80E-01  1.11E+00
   1    5    6     2     2    1.416E+00   1.416E+00  0.000E+00  0.00E+00  0.00E+00  0.00E+00  1.07E+03  1.42E-01  1.20E+01  6.00E-01  1.02E+00
   1    6    6     2     3    0.000E+00   0.000E+00  0.000E+00  0.00E+00  0.00E+00  0.00E+00  1.06E+03  0.00E+00  1.20E+01  6.00E-01  1.00E+00
   1    7    6     2     4    0.000E+00   0.000E+00  0.000E+00  0.00E+00  0.00E+00  0.00E+00  1.06E+03  0.00E+00  1.20E+01  6.00E-01  1.00E+00
   1    8    6     2     5    0.000E+00   0.000E+00  0.000E+00  0.00E+00  0.00E+00  0.00E+00  1.05E+03  0.00E+00  1.20E+01  6.00E-01  1.00E+00
   1    3    5     3     1    1.000E+01   2.825E+00  7.175E+00  0.00E+00  0.00E+00  0.00E+00  1.08E+03  1.91E+00  9.64E+00  7.23E-01  1.95E+00
   1    3    6     3     2    7.175E+00   2.491E+00  4.684E+00  0.00E+00  0.00E+00  0.00E+00  1.07E+03  1.73E+00  8.91E+00  6.68E-01  1.86E+00
   1    3    7     3     3    4.684E+00   1.972E+00  2.712E+00  0.00E+00  0.00E+00  0.00E+00  1.07E+03  1.55E+00  8.22E+00  5.55E-01  1.78E+00
   1    4    8     3     4    2.712E+00   2.257E+00  4.558E-01  0.00E+00  0.00E+00  0.00E+00  1.07E+03  1.36E+00  7.45E+00  6.71E-01  1.68E+00
   1    5    8     3     5    4.558E-01   4.558E-01  0.000E+00  0.00E+00  0.00E+00  0.00E+00  1.06E+03  1.16E+00  6.65E+00  4.99E-01  1.58E+00
   1    6    8     3     6    0.000E+00   0.000E+00  0.000E+00  0.00E+00  0.00E+00  0.00E+00  1.06E+03  0.00E+00  6.15E+00  1.84E-01  1.00E+00
   1    5   10     4     1    1.000E+01   9.052E-01  9.095E+00  0.00E+00  0.00E+00  0.00E+00  1.08E+03  6.21E-01  1.00E+01  2.50E-01  1.21E+00
   1    5    9     4     2    9.095E+00   1.784E+00  7.311E+00  0.00E+00  0.00E+00  0.00E+00  1.07E+03  5.67E-01  1.00E+01  5.00E-01  1.19E+00
   1    6    8     4     3    7.311E+00   1.226E+00  6.086E+00  0.00E+00  0.00E+00  0.00E+00  1.06E+03  5.02E-01  1.00E+01  3.50E-01  1.17E+00
   1    6    8     5     1    6.086E+00   1.472E+00  4.614E+00  0.00E+00  0.00E+00  0.00E+00  1.06E+03  5.40E-01  1.04E+01  4.16E-01  1.18E+00
   1    7    7     5     2    4.614E+00   1.490E+00  3.124E+00  0.00E+00  0.00E+00  0.00E+00  1.05E+03  4.82E-01  8.56E+00  4.28E-01  1.16E+00
   1    8    7     5     3    3.124E+00   8.286E-01  2.296E+00  0.00E+00  0.00E+00  0.00E+00  1.05E+03  4.25E-01  6.91E+00  2.42E-01  1.14E+00
   1    8    6     5     4    2.296E+00   4.945E-01  1.801E+00  0.00E+00  0.00E+00  0.00E+00  1.05E+03  3.86E-01  5.84E+00  1.46E-01  1.13E+00
   1    9    6     6     1    1.801E+00   1.801E+00  0.000E+00  0.00E+00  0.00E+00  0.00E+00  1.04E+03  1.66E-01  1.20E+01  6.00E-01  1.03E+00
   1   10    7     6     2    0.000E+00   0.000E+00  0.000E+00  0.00E+00  0.00E+00  0.00E+00  1.04E+03  0.00E+00  1.20E+01  6.00E-01  1.00E+00
   1   11    7     6     3    0.000E+00   0.000E+00  0.000E+00  0.00E+00  0.00E+00  0.00E+00  1.03E+03  0.00E+00  1.20E+01  6.00E-01  1.00E+00
   1   12    7     6     4    0.000E+00   0.000E+00  0.000E+00  0.00E+00  0.00E+00  0.00E+00  1.03E+03  0.00E+00  1.20E+01  6.00E-01  1.00E+00
   1   13    7     6     5    0.000E+00  -5.862E-01  5.862E-01  0.00E+00  0.00E+00  0.00E+00  1.03E+03  8.48E-02  1.20E+01  2.40E-01 -8.14E-01
   1   14    9     7     1    1.500E+02   3.163E+00  1.468E+02  0.00E+00  0.00E+00  0.00E+00  1.04E+03  2.28E+00  5.53E+01  5.59E+00  1.89E-01
   1   13    8     7     2    1.468E+02   5.105E+00  1.417E+02  0.00E+00  0.00E+00  0.00E+00  1.03E+03  2.26E+00  5.52E+01  6.14E+00  2.77E-01
   1   13    7     7     3    1.417E+02   6.741E+00  1.350E+02  0.00E+00  0.00E+00  0.00E+00  1.03E+03  2.23E+00  5.50E+01  5.56E+00  4.04E-01
   1   13    6     8     1    1.356E+02   5.365E+00  1.302E+02  0.00E+00  0.00E+00  0.00E+00  1.02E+03  2.69E+00  3.90E+01  3.98E+00  4.50E-01
   1   13    5     8     2    1.302E+02   2.970E+00  1.272E+02  0.00E+00  0.00E+00  0.00E+00  1.02E+03  2.66E+00  3.86E+01  3.93E+00  2.52E-01
   1   13    4     8     3    1.272E+02   7.284E-01  1.265E+02  0.00E+00  0.00E+00  0.00E+00  1.01E+03  2.65E+00  3.84E+01  3.91E+00  6.21E-02
   1   13    3     8     4    1.265E+02  -6.344E-01  1.271E+02  0.00E+00  0.00E+00  0.00E+00  1.01E+03  2.65E+00  3.84E+01  3.91E+00 -5.41E-02
   1   13    2     8     5    1.271E+02  -4.047E-01  1.276E+02  0.00E+00  0.00E+00  0.00E+00  1.00E+03  2.65E+00  3.84E+01  3.91E+00 -3.45E-02
   1   13    1     8     6    1.276E+02   5.556E-01  1.270E+02  0.00E+00  0.00E+00  0.00E+00  9.95E+02  2.65E+00  3.84E+01  2.35E+00  7.89E-02



1
              HEAD IN LAYER   1 AT END OF TIME STEP  33 IN STRESS PERIOD    2
  ---------------------------------------------------------------------------

           1       2       3       4       5       6       7       8       9      10
 ...................................................................................
   1  1065.55 1052.36 6999.00 6999.00 6999.00 6999.00 6999.00 6999.00 6999.00 6999.00
   2  1052.02 1045.87 1036.75 6999.00 6999.00 1022.83 1021.34 1017.42 6999.00 6999.00
   3  6999.00 1033.12 1032.10 1029.32 1031.60 1031.43 1030.52 1024.17 6999.00 6999.00
   4  1007.08 1018.91 1024.09 1023.65 1023.52 1022.35 1022.94 1027.39 1018.71 6999.00
   5  1002.66 1011.62 1017.31 1019.42 1019.71 1019.92 1019.30 1019.94 1020.41 1019.22
   6   997.73 1007.61 1013.66 1016.64 1017.23 1017.70 1018.10 1019.23 1016.19 1007.19
   7   995.28 1005.95 1011.84 1014.95 1015.73 1016.43 1017.28 1017.10 1010.03 6999.00
   8  6999.00 1007.09 1011.32 1014.10 1014.99 1015.89 1016.33 1014.01 1005.59 6999.00
   9  6999.00 1007.88 1011.30 1013.81 1014.81 1015.99 1015.85 1013.46 1007.62 6999.00
  10  6999.00 1008.24 1011.34 1013.77 1014.88 1015.92 1016.37 1015.33 1012.59 1008.65
  11  6999.00 1007.48 1010.79 1013.67 1015.35 1017.01 1018.20 1019.16 1019.39 6999.00
  12   998.61 1004.20 1009.36 1012.89 1016.18 1019.23 1021.64 1025.77 1028.23 6999.00
  13   994.29  999.63 1005.93 1011.83 1017.53 1023.22 1028.44 1033.93 1035.47 6999.00
  14  6999.00 1003.29 1007.95 1012.51 1017.64 1022.94 1028.82 1034.90 1039.30 6999.00
  15  6999.00 6999.00 1010.45 1013.55 1017.56 1020.90 6999.00 6999.00 6999.00 6999.00
1
  VOLUMETRIC BUDGET FOR ENTIRE MODEL AT END OF TIME STEP 33 IN STRESS PERIOD   2
  ------------------------------------------------------------------------------

     CUMULATIVE VOLUMES      L**3       RATES FOR THIS TIME STEP      L**3/T
     ------------------                 ------------------------

           IN:                                      IN:
           ---                                      ---
             STORAGE = 30236434400.0000               STORAGE =           0.0000
       CONSTANT HEAD =           0.0000         CONSTANT HEAD =           0.0000
               WELLS =           0.0000                 WELLS =           0.0000
                  ET =           0.0000                    ET =           0.0000
     HEAD DEP BOUNDS =   409439168.0000       HEAD DEP BOUNDS =           0.2167
            RECHARGE =  3370779140.0000              RECHARGE =           1.7937
      STREAM LEAKAGE =172599935000.0000        STREAM LEAKAGE =          59.6271

            TOTAL IN =206616592000.0000              TOTAL IN =          61.6375

          OUT:                                     OUT:
          ----                                     ----
             STORAGE = 18536783900.0000               STORAGE =          42.0061
       CONSTANT HEAD =           0.0000         CONSTANT HEAD =           0.0000
               WELLS =157787963000.0000                 WELLS =           0.0000
                  ET = 28845101100.0000                    ET =          17.7638
     HEAD DEP BOUNDS =   420913760.0000       HEAD DEP BOUNDS =           0.2389
            RECHARGE =           0.0000              RECHARGE =           0.0000
      STREAM LEAKAGE =  1028566720.0000        STREAM LEAKAGE =           1.6253

           TOTAL OUT =206619329000.0000             TOTAL OUT =          61.6340

            IN - OUT =    -2741088.0000              IN - OUT =       3.5548E-03

 PERCENT DISCREPANCY =           0.00     PERCENT DISCREPANCY =           0.01






          TIME SUMMARY AT END OF TIME STEP  33 IN STRESS PERIOD    2
                    SECONDS     MINUTES      HOURS       DAYS        YEARS
                    -----------------------------------------------------------
   TIME STEP LENGTH 2.86234E+07 4.77056E+05  7950.9      331.29     0.90702    
 STRESS PERIOD TIME 3.01300E+08 5.02167E+06  83695.      3487.3      9.5476    
         TOTAL TIME 1.87918E+09 3.13197E+07 5.21994E+05  21750.      59.548    
1
 
 SOLVING FOR HEAD 
    11 ITERATIONS FOR TIME STEP  34 IN STRESS PERIOD    2

 MAXIMUM HEAD CHANGE FOR EACH ITERATION:

    HEAD CHANGE   HEAD CHANGE   HEAD CHANGE   HEAD CHANGE   HEAD CHANGE
  LAYER,ROW,COL LAYER,ROW,COL LAYER,ROW,COL LAYER,ROW,COL LAYER,ROW,COL
 ----------------------------------------------------------------------
      4.461         1.464         1.168        0.4708        0.1928    
  (  1,  6, 10) (  1,  6, 10) (  1,  5,  5) (  1,  6,  5) (  1,  2,  3)
     0.2984E-01    0.1783E-01    0.9811E-02    0.5094E-02    0.1233E-02
  (  1,  2,  3) (  1,  3,  4) (  1,  7,  5) (  1,  3,  4) (  1,  7,  5)
     0.5956E-03
  (  1,  2,  3)


 NO OUTPUT CONTROL FOR STRESS PERIOD    2   TIME STEP  34
 
 SOLVING FOR HEAD 
    11 ITERATIONS FOR TIME STEP  35 IN STRESS PERIOD    2

 MAXIMUM HEAD CHANGE FOR EACH ITERATION:

    HEAD CHANGE   HEAD CHANGE   HEAD CHANGE   HEAD CHANGE   HEAD CHANGE
  LAYER,ROW,COL LAYER,ROW,COL LAYER,ROW,COL LAYER,ROW,COL LAYER,ROW,COL
 ----------------------------------------------------------------------
      4.423         1.482         1.235        0.5195        0.2283    
  (  1,  6, 10) (  1,  6,  9) (  1,  5,  5) (  1,  6,  5) (  1,  2,  3)
     0.3483E-01    0.2094E-01    0.1173E-01    0.6557E-02    0.1596E-02
  (  1,  2,  3) (  1,  3,  4) (  1,  7,  6) (  1,  3,  4) (  1,  7,  5)
     0.7957E-03
  (  1,  2,  3)


 OUTPUT CONTROL FOR STRESS PERIOD    2   TIME STEP  35
    PRINT BUDGET
    PRINT HEAD FOR ALL LAYERS
    SAVE BUDGET
 UBUDSV SAVING "              ET" ON UNIT 59 AT TIME STEP 35, STRESS PERIOD    2

  HEAD DEP BOUNDS   PERIOD    2   STEP  35
 BOUNDARY      1   LAYER   1   ROW    13   COL     1   RATE   -0.240821    
 BOUNDARY      2   LAYER   1   ROW    14   COL     9   RATE    0.216408    



   STREAM LEAKAGE   PERIOD    2   STEP  35

 LAYER ROW COL. STREAM  RCH.  FLOW INTO    FLOW TO  FLOW OUT OF  OVRLND.   DIRECT    STREAM    STREAM    STREAM    STREAM  STREAMBED  STREAMBED
                SEG.NO.  NO.  STRM. RCH.   AQUIFER   STRM. RCH.  RUNOFF    PRECIP      ET       HEAD      DEPTH     WIDTH  CONDCTNC.   GRADIENT

   1    1    1     1     1    2.500E+01   2.401E+00  2.260E+01  0.00E+00  0.00E+00  0.00E+00  1.09E+03  1.16E+00  1.28E+01  5.77E-01  1.39E+00
   1    2    2     1     2    2.260E+01   3.511E+00  1.909E+01  0.00E+00  0.00E+00  0.00E+00  1.09E+03  1.11E+00  1.22E+01  8.53E-01  1.37E+00
   1    3    3     1     3    1.909E+01   2.753E+00  1.634E+01  0.00E+00  0.00E+00  0.00E+00  1.08E+03  1.06E+00  1.13E+01  6.78E-01  1.35E+00
   1    3    4     1     4    1.634E+01   2.331E+00  1.400E+01  0.00E+00  0.00E+00  0.00E+00  1.08E+03  1.02E+00  1.05E+01  5.80E-01  1.34E+00
   1    4    5     2     1    4.004E+00   2.588E+00  1.416E+00  0.00E+00  0.00E+00  0.00E+00  1.07E+03  3.18E-01  1.20E+01  7.80E-01  1.11E+00
   1    5    6     2     2    1.416E+00   1.416E+00  0.000E+00  0.00E+00  0.00E+00  0.00E+00  1.07E+03  1.42E-01  1.20E+01  6.00E-01  1.02E+00
   1    6    6     2     3    0.000E+00   0.000E+00  0.000E+00  0.00E+00  0.00E+00  0.00E+00  1.06E+03  0.00E+00  1.20E+01  6.00E-01  1.00E+00
   1    7    6     2     4    0.000E+00   0.000E+00  0.000E+00  0.00E+00  0.00E+00  0.00E+00  1.06E+03  0.00E+00  1.20E+01  6.00E-01  1.00E+00
   1    8    6     2     5    0.000E+00   0.000E+00  0.000E+00  0.00E+00  0.00E+00  0.00E+00  1.05E+03  0.00E+00  1.20E+01  6.00E-01  1.00E+00
   1    3    5     3     1    1.000E+01   2.825E+00  7.175E+00  0.00E+00  0.00E+00  0.00E+00  1.08E+03  1.91E+00  9.64E+00  7.23E-01  1.95E+00
   1    3    6     3     2    7.175E+00   2.491E+00  4.684E+00  0.00E+00  0.00E+00  0.00E+00  1.07E+03  1.73E+00  8.91E+00  6.68E-01  1.86E+00
   1    3    7     3     3    4.684E+00   1.972E+00  2.712E+00  0.00E+00  0.00E+00  0.00E+00  1.07E+03  1.55E+00  8.22E+00  5.55E-01  1.78E+00
   1    4    8     3     4    2.712E+00   2.257E+00  4.558E-01  0.00E+00  0.00E+00  0.00E+00  1.07E+03  1.36E+00  7.45E+00  6.71E-01  1.68E+00
   1    5    8     3     5    4.558E-01   4.558E-01  0.000E+00  0.00E+00  0.00E+00  0.00E+00  1.06E+03  1.16E+00  6.65E+00  4.99E-01  1.58E+00
   1    6    8     3     6    0.000E+00   0.000E+00  0.000E+00  0.00E+00  0.00E+00  0.00E+00  1.06E+03  0.00E+00  6.15E+00  1.84E-01  1.00E+00
   1    5   10     4     1    1.000E+01   9.052E-01  9.095E+00  0.00E+00  0.00E+00  0.00E+00  1.08E+03  6.21E-01  1.00E+01  2.50E-01  1.21E+00
   1    5    9     4     2    9.095E+00   1.784E+00  7.311E+00  0.00E+00  0.00E+00  0.00E+00  1.07E+03  5.67E-01  1.00E+01  5.00E-01  1.19E+00
   1    6    8     4     3    7.311E+00   1.226E+00  6.086E+00  0.00E+00  0.00E+00  0.00E+00  1.06E+03  5.02E-01  1.00E+01  3.50E-01  1.17E+00
   1    6    8     5     1    6.086E+00   1.472E+00  4.614E+00  0.00E+00  0.00E+00  0.00E+00  1.06E+03  5.40E-01  1.04E+01  4.16E-01  1.18E+00
   1    7    7     5     2    4.614E+00   1.490E+00  3.124E+00  0.00E+00  0.00E+00  0.00E+00  1.05E+03  4.82E-01  8.56E+00  4.28E-01  1.16E+00
   1    8    7     5     3    3.124E+00   8.286E-01  2.296E+00  0.00E+00  0.00E+00  0.00E+00  1.05E+03  4.25E-01  6.91E+00  2.42E-01  1.14E+00
   1    8    6     5     4    2.296E+00   4.945E-01  1.801E+00  0.00E+00  0.00E+00  0.00E+00  1.05E+03  3.86E-01  5.84E+00  1.46E-01  1.13E+00
   1    9    6     6     1    1.801E+00   1.801E+00  0.000E+00  0.00E+00  0.00E+00  0.00E+00  1.04E+03  1.66E-01  1.20E+01  6.00E-01  1.03E+00
   1   10    7     6     2    0.000E+00   0.000E+00  0.000E+00  0.00E+00  0.00E+00  0.00E+00  1.04E+03  0.00E+00  1.20E+01  6.00E-01  1.00E+00
   1   11    7     6     3    0.000E+00   0.000E+00  0.000E+00  0.00E+00  0.00E+00  0.00E+00  1.03E+03  0.00E+00  1.20E+01  6.00E-01  1.00E+00
   1   12    7     6     4    0.000E+00   0.000E+00  0.000E+00  0.00E+00  0.00E+00  0.00E+00  1.03E+03  0.00E+00  1.20E+01  6.00E-01  1.00E+00
   1   13    7     6     5    0.000E+00  -6.179E-01  6.179E-01  0.00E+00  0.00E+00  0.00E+00  1.03E+03  8.75E-02  1.20E+01  2.40E-01 -8.58E-01
   1   14    9     7     1    1.500E+02   3.123E+00  1.469E+02  0.00E+00  0.00E+00  0.00E+00  1.04E+03  2.28E+00  5.53E+01  5.59E+00  1.86E-01
   1   13    8     7     2    1.469E+02   4.895E+00  1.420E+02  0.00E+00  0.00E+00  0.00E+00  1.03E+03  2.26E+00  5.52E+01  6.14E+00  2.66E-01
   1   13    7     7     3    1.420E+02   6.011E+00  1.360E+02  0.00E+00  0.00E+00  0.00E+00  1.03E+03  2.23E+00  5.50E+01  5.57E+00  3.60E-01
   1   13    6     8     1    1.366E+02   4.518E+00  1.321E+02  0.00E+00  0.00E+00  0.00E+00  1.02E+03  2.70E+00  3.92E+01  3.99E+00  3.77E-01
   1   13    5     8     2    1.321E+02   1.997E+00  1.301E+02  0.00E+00  0.00E+00  0.00E+00  1.02E+03  2.68E+00  3.88E+01  3.96E+00  1.68E-01
   1   13    4     8     3    1.301E+02  -1.295E-01  1.302E+02  0.00E+00  0.00E+00  0.00E+00  1.01E+03  2.67E+00  3.87E+01  3.95E+00 -1.09E-02
   1   13    3     8     4    1.302E+02  -1.196E+00  1.314E+02  0.00E+00  0.00E+00  0.00E+00  1.01E+03  2.68E+00  3.88E+01  3.95E+00 -1.01E-01
   1   13    2     8     5    1.314E+02  -5.624E-01  1.320E+02  0.00E+00  0.00E+00  0.00E+00  1.00E+03  2.68E+00  3.89E+01  3.96E+00 -4.73E-02
   1   13    1     8     6    1.320E+02   5.241E-01  1.314E+02  0.00E+00  0.00E+00  0.00E+00  9.95E+02  2.68E+00  3.89E+01  2.38E+00  7.35E-02



1
              HEAD IN LAYER   1 AT END OF TIME STEP  35 IN STRESS PERIOD    2
  ---------------------------------------------------------------------------

           1       2       3       4       5       6       7       8       9      10
 ...................................................................................
   1  1071.28 1059.91 6999.00 6999.00 6999.00 6999.00 6999.00 6999.00 6999.00 6999.00
   2  1059.50 1054.51 1046.00 6999.00 6999.00 1033.86 1032.51 1029.01 6999.00 6999.00
   3  6999.00 1042.56 1041.47 1038.59 1040.74 1040.69 1040.06 1034.33 6999.00 6999.00
   4  1019.07 1029.09 1033.54 1032.78 1032.54 1031.40 1032.18 1036.73 1029.39 6999.00
   5  1014.92 1021.89 1026.63 1028.28 1028.49 1028.70 1028.18 1029.05 1030.00 1029.36
   6  1010.38 1017.65 1022.58 1025.04 1025.55 1026.06 1026.60 1027.98 1025.97 1020.84
   7  1007.99 1015.39 1020.11 1022.69 1023.38 1024.13 1025.18 1025.48 1020.57 6999.00
   8  6999.00 1015.15 1018.57 1020.91 1021.72 1022.64 1023.22 1021.76 1015.84 6999.00
   9  6999.00 1014.41 1017.27 1019.46 1020.42 1021.61 1021.53 1019.71 1015.36 6999.00
  10  6999.00 1013.11 1015.85 1018.15 1019.27 1020.33 1020.79 1019.96 1017.69 1014.34
  11  6999.00 1010.48 1013.54 1016.68 1018.41 1020.06 1021.23 1022.13 1022.52 6999.00
  12   999.16 1005.31 1010.57 1014.47 1017.80 1020.78 1023.09 1026.70 1029.38 6999.00
  13   994.34  999.70 1006.10 1012.08 1017.80 1023.45 1028.57 1033.96 1035.59 6999.00
  14  6999.00 1003.45 1008.18 1012.78 1017.92 1023.18 1028.96 1034.95 1039.31 6999.00
  15  6999.00 6999.00 1010.77 1013.89 1017.90 1021.23 6999.00 6999.00 6999.00 6999.00
1
  VOLUMETRIC BUDGET FOR ENTIRE MODEL AT END OF TIME STEP 35 IN STRESS PERIOD   2
  ------------------------------------------------------------------------------

     CUMULATIVE VOLUMES      L**3       RATES FOR THIS TIME STEP      L**3/T
     ------------------                 ------------------------

           IN:                                      IN:
           ---                                      ---
             STORAGE = 30236434400.0000               STORAGE =           0.0000
       CONSTANT HEAD =           0.0000         CONSTANT HEAD =           0.0000
               WELLS =           0.0000                 WELLS =           0.0000
                  ET =           0.0000                    ET =           0.0000
     HEAD DEP BOUNDS =   423752384.0000       HEAD DEP BOUNDS =           0.2164
            RECHARGE =  3489381890.0000              RECHARGE =           1.7937
      STREAM LEAKAGE =176360620000.0000        STREAM LEAKAGE =          56.0690

            TOTAL IN =210510184000.0000              TOTAL IN =          58.0791

          OUT:                                     OUT:
          ----                                     ----
             STORAGE = 21043404800.0000               STORAGE =          36.6045
       CONSTANT HEAD =           0.0000         CONSTANT HEAD =           0.0000
               WELLS =157787963000.0000                 WELLS =           0.0000
                  ET = 30066159600.0000                    ET =          18.7242
     HEAD DEP BOUNDS =   436807040.0000       HEAD DEP BOUNDS =           0.2408
            RECHARGE =           0.0000              RECHARGE =           0.0000
      STREAM LEAKAGE =  1178403580.0000        STREAM LEAKAGE =           2.5060

           TOTAL OUT =210512740000.0000             TOTAL OUT =          58.0755

            IN - OUT =    -2549696.0000              IN - OUT =       3.6535E-03

 PERCENT DISCREPANCY =           0.00     PERCENT DISCREPANCY =           0.01






          TIME SUMMARY AT END OF TIME STEP  35 IN STRESS PERIOD    2
                    SECONDS     MINUTES      HOURS       DAYS        YEARS
                    -----------------------------------------------------------
   TIME STEP LENGTH 3.46343E+07 5.77238E+05  9620.6      400.86      1.0975    
 STRESS PERIOD TIME 3.67420E+08 6.12367E+06 1.02061E+05  4252.6      11.643    
         TOTAL TIME 1.94530E+09 3.24217E+07 5.40361E+05  22515.      61.643    
1
 
 SOLVING FOR HEAD 
    12 ITERATIONS FOR TIME STEP  36 IN STRESS PERIOD    2

 MAXIMUM HEAD CHANGE FOR EACH ITERATION:

    HEAD CHANGE   HEAD CHANGE   HEAD CHANGE   HEAD CHANGE   HEAD CHANGE
  LAYER,ROW,COL LAYER,ROW,COL LAYER,ROW,COL LAYER,ROW,COL LAYER,ROW,COL
 ----------------------------------------------------------------------
      4.208         1.505         1.293        0.5686        0.2678    
  (  1,  6, 10) (  1,  6,  9) (  1,  5,  5) (  1,  6,  5) (  1,  2,  3)
     0.4020E-01    0.2441E-01    0.1405E-01    0.8389E-02    0.2073E-02
  (  1,  2,  3) (  1,  2,  3) (  1,  7,  6) (  1,  3,  4) (  1,  7,  5)
     0.1054E-02    0.3425E-03
  (  1,  2,  3) (  1,  4,  3)


 NO OUTPUT CONTROL FOR STRESS PERIOD    2   TIME STEP  36
 
 SOLVING FOR HEAD 
    12 ITERATIONS FOR TIME STEP  37 IN STRESS PERIOD    2

 MAXIMUM HEAD CHANGE FOR EACH ITERATION:

    HEAD CHANGE   HEAD CHANGE   HEAD CHANGE   HEAD CHANGE   HEAD CHANGE
  LAYER,ROW,COL LAYER,ROW,COL LAYER,ROW,COL LAYER,ROW,COL LAYER,ROW,COL
 ----------------------------------------------------------------------
      4.081         1.504         1.350        0.6162        0.3107    
  (  1,  2,  8) (  1,  4,  2) (  1,  3,  4) (  1,  6,  5) (  1,  2,  3)
     0.5007E-01    0.2860E-01    0.1665E-01    0.1061E-01    0.2685E-02
  (  1,  5, 10) (  1,  2,  3) (  1,  7,  6) (  1,  3,  4) (  1,  7,  8)
     0.1379E-02    0.4496E-03
  (  1,  2,  3) (  1,  4,  3)


 NO OUTPUT CONTROL FOR STRESS PERIOD    2   TIME STEP  37
 
 SOLVING FOR HEAD 
    12 ITERATIONS FOR TIME STEP  38 IN STRESS PERIOD    2

 MAXIMUM HEAD CHANGE FOR EACH ITERATION:

    HEAD CHANGE   HEAD CHANGE   HEAD CHANGE   HEAD CHANGE   HEAD CHANGE
  LAYER,ROW,COL LAYER,ROW,COL LAYER,ROW,COL LAYER,ROW,COL LAYER,ROW,COL
 ----------------------------------------------------------------------
      3.954         1.524         1.412        0.6595        0.3553    
  (  1,  2,  8) (  1,  4,  2) (  1,  3,  4) (  1,  6,  5) (  1,  2,  3)
     0.6705E-01    0.3300E-01    0.1950E-01    0.1321E-01    0.3458E-02
  (  1,  5, 10) (  1,  2,  3) (  1,  7,  6) (  1,  3,  4) (  1,  6,  9)
     0.1778E-02    0.5789E-03
  (  1,  2,  3) (  1,  4,  3)


 NO OUTPUT CONTROL FOR STRESS PERIOD    2   TIME STEP  38
 
 SOLVING FOR HEAD 
    12 ITERATIONS FOR TIME STEP  39 IN STRESS PERIOD    2

 MAXIMUM HEAD CHANGE FOR EACH ITERATION:

    HEAD CHANGE   HEAD CHANGE   HEAD CHANGE   HEAD CHANGE   HEAD CHANGE
  LAYER,ROW,COL LAYER,ROW,COL LAYER,ROW,COL LAYER,ROW,COL LAYER,ROW,COL
 ----------------------------------------------------------------------
      3.749         1.521         1.455        0.6921        0.3986    
  (  1,  2,  8) (  1,  4,  2) (  1,  3,  4) (  1,  6,  5) (  1,  2,  3)
     0.8468E-01    0.3733E-01    0.2224E-01    0.1601E-01    0.4355E-02
  (  1,  5, 10) (  1,  2,  3) (  1,  6,  7) (  1,  3,  4) (  1,  6,  9)
     0.2232E-02    0.7234E-03
  (  1,  2,  3) (  1,  4,  3)


 NO OUTPUT CONTROL FOR STRESS PERIOD    2   TIME STEP  39
 
 SOLVING FOR HEAD 
    14 ITERATIONS FOR TIME STEP  40 IN STRESS PERIOD    2

 MAXIMUM HEAD CHANGE FOR EACH ITERATION:

    HEAD CHANGE   HEAD CHANGE   HEAD CHANGE   HEAD CHANGE   HEAD CHANGE
  LAYER,ROW,COL LAYER,ROW,COL LAYER,ROW,COL LAYER,ROW,COL LAYER,ROW,COL
 ----------------------------------------------------------------------
      3.485         1.509         1.466        0.7213        0.4180    
  (  1,  2,  8) (  1,  4,  2) (  1,  3,  4) (  1,  6,  5) (  1,  2,  3)
     0.1053        0.4292E-01    0.2701E-01    0.2066E-01    0.5759E-02
  (  1,  5, 10) (  1,  2,  3) (  1,  6,  6) (  1,  3,  4) (  1,  6,  9)
     0.3093E-02    0.1012E-02    0.1074E-02    0.4090E-03
  (  1,  2,  3) (  1,  3,  2) (  1,  2,  3) (  1,  6,  5)


 OUTPUT CONTROL FOR STRESS PERIOD    2   TIME STEP  40
    PRINT BUDGET
    PRINT HEAD FOR ALL LAYERS
    SAVE BUDGET
 UBUDSV SAVING "              ET" ON UNIT 59 AT TIME STEP 40, STRESS PERIOD    2

  HEAD DEP BOUNDS   PERIOD    2   STEP  40
 BOUNDARY      1   LAYER   1   ROW    13   COL     1   RATE   -0.245223    
 BOUNDARY      2   LAYER   1   ROW    14   COL     9   RATE    0.215727    



   STREAM LEAKAGE   PERIOD    2   STEP  40

 LAYER ROW COL. STREAM  RCH.  FLOW INTO    FLOW TO  FLOW OUT OF  OVRLND.   DIRECT    STREAM    STREAM    STREAM    STREAM  STREAMBED  STREAMBED
                SEG.NO.  NO.  STRM. RCH.   AQUIFER   STRM. RCH.  RUNOFF    PRECIP      ET       HEAD      DEPTH     WIDTH  CONDCTNC.   GRADIENT

   1    1    1     1     1    2.500E+01   1.991E+00  2.301E+01  0.00E+00  0.00E+00  0.00E+00  1.09E+03  1.17E+00  1.29E+01  5.79E-01  1.15E+00
   1    2    2     1     2    2.301E+01   3.542E+00  1.947E+01  0.00E+00  0.00E+00  0.00E+00  1.09E+03  1.12E+00  1.23E+01  8.59E-01  1.37E+00
   1    3    3     1     3    1.947E+01   2.785E+00  1.668E+01  0.00E+00  0.00E+00  0.00E+00  1.08E+03  1.07E+00  1.14E+01  6.85E-01  1.36E+00
   1    3    4     1     4    1.668E+01   2.360E+00  1.432E+01  0.00E+00  0.00E+00  0.00E+00  1.08E+03  1.02E+00  1.06E+01  5.87E-01  1.34E+00
   1    4    5     2     1    4.323E+00   2.605E+00  1.718E+00  0.00E+00  0.00E+00  0.00E+00  1.07E+03  3.40E-01  1.20E+01  7.80E-01  1.11E+00
   1    5    6     2     2    1.718E+00   1.718E+00  0.000E+00  0.00E+00  0.00E+00  0.00E+00  1.07E+03  1.60E-01  1.20E+01  6.00E-01  1.02E+00
   1    6    6     2     3    0.000E+00   0.000E+00  0.000E+00  0.00E+00  0.00E+00  0.00E+00  1.06E+03  0.00E+00  1.20E+01  6.00E-01  1.00E+00
   1    7    6     2     4    0.000E+00   0.000E+00  0.000E+00  0.00E+00  0.00E+00  0.00E+00  1.06E+03  0.00E+00  1.20E+01  6.00E-01  1.00E+00
   1    8    6     2     5    0.000E+00   0.000E+00  0.000E+00  0.00E+00  0.00E+00  0.00E+00  1.05E+03  0.00E+00  1.20E+01  6.00E-01  1.00E+00
   1    3    5     3     1    1.000E+01   2.825E+00  7.175E+00  0.00E+00  0.00E+00  0.00E+00  1.08E+03  1.91E+00  9.64E+00  7.23E-01  1.95E+00
   1    3    6     3     2    7.175E+00   2.491E+00  4.684E+00  0.00E+00  0.00E+00  0.00E+00  1.07E+03  1.73E+00  8.91E+00  6.68E-01  1.86E+00
   1    3    7     3     3    4.684E+00   1.972E+00  2.712E+00  0.00E+00  0.00E+00  0.00E+00  1.07E+03  1.55E+00  8.22E+00  5.55E-01  1.78E+00
   1    4    8     3     4    2.712E+00   2.257E+00  4.558E-01  0.00E+00  0.00E+00  0.00E+00  1.07E+03  1.36E+00  7.45E+00  6.71E-01  1.68E+00
   1    5    8     3     5    4.558E-01   4.558E-01  0.000E+00  0.00E+00  0.00E+00  0.00E+00  1.06E+03  1.16E+00  6.65E+00  4.99E-01  1.58E+00
   1    6    8     3     6    0.000E+00   0.000E+00  0.000E+00  0.00E+00  0.00E+00  0.00E+00  1.06E+03  0.00E+00  6.15E+00  1.84E-01  1.00E+00
   1    5   10     4     1    1.000E+01   9.052E-01  9.095E+00  0.00E+00  0.00E+00  0.00E+00  1.08E+03  6.21E-01  1.00E+01  2.50E-01  1.21E+00
   1    5    9     4     2    9.095E+00   1.784E+00  7.311E+00  0.00E+00  0.00E+00  0.00E+00  1.07E+03  5.67E-01  1.00E+01  5.00E-01  1.19E+00
   1    6    8     4     3    7.311E+00   1.226E+00  6.086E+00  0.00E+00  0.00E+00  0.00E+00  1.06E+03  5.02E-01  1.00E+01  3.50E-01  1.17E+00
   1    6    8     5     1    6.086E+00   1.472E+00  4.614E+00  0.00E+00  0.00E+00  0.00E+00  1.06E+03  5.40E-01  1.04E+01  4.16E-01  1.18E+00
   1    7    7     5     2    4.614E+00   1.490E+00  3.124E+00  0.00E+00  0.00E+00  0.00E+00  1.05E+03  4.82E-01  8.56E+00  4.28E-01  1.16E+00
   1    8    7     5     3    3.124E+00   8.286E-01  2.296E+00  0.00E+00  0.00E+00  0.00E+00  1.05E+03  4.25E-01  6.91E+00  2.42E-01  1.14E+00
   1    8    6     5     4    2.296E+00   4.945E-01  1.801E+00  0.00E+00  0.00E+00  0.00E+00  1.05E+03  3.86E-01  5.84E+00  1.46E-01  1.13E+00
   1    9    6     6     1    1.801E+00   1.801E+00  0.000E+00  0.00E+00  0.00E+00  0.00E+00  1.04E+03  1.66E-01  1.20E+01  6.00E-01  1.03E+00
   1   10    7     6     2    0.000E+00   0.000E+00  0.000E+00  0.00E+00  0.00E+00  0.00E+00  1.04E+03  0.00E+00  1.20E+01  6.00E-01  1.00E+00
   1   11    7     6     3    0.000E+00   0.000E+00  0.000E+00  0.00E+00  0.00E+00  0.00E+00  1.03E+03  0.00E+00  1.20E+01  6.00E-01  1.00E+00
   1   12    7     6     4    0.000E+00   0.000E+00  0.000E+00  0.00E+00  0.00E+00  0.00E+00  1.03E+03  0.00E+00  1.20E+01  6.00E-01  8.62E-01
   1   13    7     6     5    0.000E+00  -6.933E-01  6.933E-01  0.00E+00  0.00E+00  0.00E+00  1.03E+03  9.37E-02  1.20E+01  2.40E-01 -9.63E-01
   1   14    9     7     1    1.500E+02   3.024E+00  1.470E+02  0.00E+00  0.00E+00  0.00E+00  1.04E+03  2.28E+00  5.53E+01  5.59E+00  1.80E-01
   1   13    8     7     2    1.470E+02   4.384E+00  1.426E+02  0.00E+00  0.00E+00  0.00E+00  1.03E+03  2.26E+00  5.52E+01  6.14E+00  2.38E-01
   1   13    7     7     3    1.426E+02   4.277E+00  1.383E+02  0.00E+00  0.00E+00  0.00E+00  1.03E+03  2.24E+00  5.51E+01  5.57E+00  2.56E-01
   1   13    6     8     1    1.390E+02   2.492E+00  1.365E+02  0.00E+00  0.00E+00  0.00E+00  1.02E+03  2.73E+00  3.96E+01  4.03E+00  2.06E-01
   1   13    5     8     2    1.365E+02  -3.025E-01  1.368E+02  0.00E+00  0.00E+00  0.00E+00  1.02E+03  2.72E+00  3.94E+01  4.02E+00 -2.51E-02
   1   13    4     8     3    1.368E+02  -2.169E+00  1.390E+02  0.00E+00  0.00E+00  0.00E+00  1.01E+03  2.73E+00  3.96E+01  4.03E+00 -1.79E-01
   1   13    3     8     4    1.390E+02  -2.532E+00  1.415E+02  0.00E+00  0.00E+00  0.00E+00  1.01E+03  2.75E+00  3.98E+01  4.06E+00 -2.08E-01
   1   13    2     8     5    1.415E+02  -9.424E-01  1.425E+02  0.00E+00  0.00E+00  0.00E+00  1.00E+03  2.76E+00  4.00E+01  4.08E+00 -7.70E-02
   1   13    1     8     6    1.425E+02   4.482E-01  1.420E+02  0.00E+00  0.00E+00  0.00E+00  9.95E+02  2.76E+00  4.00E+01  2.45E+00  6.10E-02



1
              HEAD IN LAYER   1 AT END OF TIME STEP  40 IN STRESS PERIOD    2
  ---------------------------------------------------------------------------

           1       2       3       4       5       6       7       8       9      10
 ...................................................................................
   1  1090.77 1083.30 6999.00 6999.00 6999.00 6999.00 6999.00 6999.00 6999.00 6999.00
   2  1083.24 1079.22 1071.37 6999.00 6999.00 1062.44 1061.97 1059.96 6999.00 6999.00
   3  6999.00 1068.34 1066.52 1063.00 1064.64 1065.05 1065.42 1061.44 6999.00 6999.00
   4  1050.08 1056.13 1058.39 1056.52 1055.87 1054.76 1056.11 1061.00 1055.80 6999.00
   5  1045.84 1048.65 1050.76 1051.07 1051.02 1051.30 1050.90 1052.37 1054.62 1055.41
   6  1041.01 1043.36 1045.41 1046.46 1046.74 1047.34 1048.23 1050.22 1050.64 1051.12
   7  1037.88 1039.19 1041.02 1042.25 1042.73 1043.57 1045.12 1046.65 1045.00 6999.00
   8  6999.00 1035.11 1036.69 1037.99 1038.58 1039.55 1040.47 1040.97 1038.74 6999.00
   9  6999.00 1030.39 1032.05 1033.53 1034.36 1035.55 1035.58 1035.12 1033.64 6999.00
  10  6999.00 1024.93 1026.91 1028.95 1030.08 1031.08 1031.38 1031.36 1030.76 1029.88
  11  6999.00 1017.73 1020.22 1024.01 1025.83 1027.39 1028.25 1029.33 1030.43 6999.00
  12  1000.47 1007.96 1013.42 1018.19 1021.58 1024.47 1026.51 1028.97 1032.29 6999.00
  13   994.45  999.87 1006.50 1012.64 1018.42 1023.99 1028.89 1034.05 1035.90 6999.00
  14  6999.00 1003.80 1008.68 1013.39 1018.55 1023.73 1029.28 1035.05 1039.32 6999.00
  15  6999.00 6999.00 1011.48 1014.64 1018.66 1021.94 6999.00 6999.00 6999.00 6999.00
1
  VOLUMETRIC BUDGET FOR ENTIRE MODEL AT END OF TIME STEP 40 IN STRESS PERIOD   2
  ------------------------------------------------------------------------------

     CUMULATIVE VOLUMES      L**3       RATES FOR THIS TIME STEP      L**3/T
     ------------------                 ------------------------

           IN:                                      IN:
           ---                                      ---
             STORAGE = 30236434400.0000               STORAGE =           0.0000
       CONSTANT HEAD =           0.0000         CONSTANT HEAD =           0.0000
               WELLS =           0.0000                 WELLS =           0.0000
                  ET =           0.0000                    ET =           0.0000
     HEAD DEP BOUNDS =   473984096.0000       HEAD DEP BOUNDS =           0.2157
            RECHARGE =  3906590720.0000              RECHARGE =           1.7937
      STREAM LEAKAGE =188395209000.0000        STREAM LEAKAGE =          49.6251

            TOTAL IN =223012225000.0000              TOTAL IN =          51.6346

          OUT:                                     OUT:
          ----                                     ----
             STORAGE = 27459137500.0000               STORAGE =          22.2148
       CONSTANT HEAD =           0.0000         CONSTANT HEAD =           0.0000
               WELLS =157787963000.0000                 WELLS =           0.0000
                  ET = 34912690200.0000                    ET =          22.5340
     HEAD DEP BOUNDS =   493490368.0000       HEAD DEP BOUNDS =           0.2452
            RECHARGE =           0.0000              RECHARGE =           0.0000
      STREAM LEAKAGE =  2360807940.0000        STREAM LEAKAGE =           6.6395

           TOTAL OUT =223014093000.0000             TOTAL OUT =          51.6336

            IN - OUT =    -1871456.0000              IN - OUT =       1.0119E-03

 PERCENT DISCREPANCY =           0.00     PERCENT DISCREPANCY =           0.00






          TIME SUMMARY AT END OF TIME STEP  40 IN STRESS PERIOD    2
                    SECONDS     MINUTES      HOURS       DAYS        YEARS
                    -----------------------------------------------------------
   TIME STEP LENGTH 5.57789E+07 9.29648E+05  15494.      645.59      1.7675    
 STRESS PERIOD TIME 6.00011E+08 1.00002E+07 1.66670E+05  6944.6      19.013    
         TOTAL TIME 2.17789E+09 3.62982E+07 6.04970E+05  25207.      69.013    
1
 
 SOLVING FOR HEAD 
    15 ITERATIONS FOR TIME STEP  41 IN STRESS PERIOD    2

 MAXIMUM HEAD CHANGE FOR EACH ITERATION:

    HEAD CHANGE   HEAD CHANGE   HEAD CHANGE   HEAD CHANGE   HEAD CHANGE
  LAYER,ROW,COL LAYER,ROW,COL LAYER,ROW,COL LAYER,ROW,COL LAYER,ROW,COL
 ----------------------------------------------------------------------
      3.198         1.523         1.480        0.7756        0.4526    
  (  1,  2,  8) (  1,  5,  8) (  1,  3,  4) (  1,  5,  8) (  1,  2,  3)
     0.1584        0.5325E-01    0.3754E-01    0.3089E-01    0.1344E-01
  (  1,  6,  8) (  1,  3,  4) (  1,  6,  5) (  1,  3,  4) (  1,  6,  8)
     0.3533E-02    0.1841E-02    0.2100E-02    0.1177E-02    0.6327E-03
  (  1,  2,  3) (  1,  4,  3) (  1,  3,  4) (  1,  6,  8) (  1,  3,  4)


 NO OUTPUT CONTROL FOR STRESS PERIOD    2   TIME STEP  41
 
 SOLVING FOR HEAD 
    14 ITERATIONS FOR TIME STEP  42 IN STRESS PERIOD    2

 MAXIMUM HEAD CHANGE FOR EACH ITERATION:

    HEAD CHANGE   HEAD CHANGE   HEAD CHANGE   HEAD CHANGE   HEAD CHANGE
  LAYER,ROW,COL LAYER,ROW,COL LAYER,ROW,COL LAYER,ROW,COL LAYER,ROW,COL
 ----------------------------------------------------------------------
      2.746         1.246         1.083        0.6383        0.3561    
  (  1,  4,  1) (  1,  6,  1) (  1,  5,  5) (  1, 10,  7) (  1, 10,  7)
     0.2042        0.6604E-01    0.3285E-01    0.1879E-01    0.1123E-01
  (  1, 11,  7) (  1, 11,  7) (  1, 11,  7) (  1, 11,  7) (  1, 11,  7)
     0.4710E-02    0.1905E-02    0.1149E-02    0.7340E-03
  (  1, 11,  7) (  1, 11,  7) (  1, 11,  7) (  1, 11,  7)


 NO OUTPUT CONTROL FOR STRESS PERIOD    2   TIME STEP  42
 
 SOLVING FOR HEAD 
    10 ITERATIONS FOR TIME STEP  43 IN STRESS PERIOD    2

 MAXIMUM HEAD CHANGE FOR EACH ITERATION:

    HEAD CHANGE   HEAD CHANGE   HEAD CHANGE   HEAD CHANGE   HEAD CHANGE
  LAYER,ROW,COL LAYER,ROW,COL LAYER,ROW,COL LAYER,ROW,COL LAYER,ROW,COL
 ----------------------------------------------------------------------
      2.137        0.9635        0.4735        0.1690        0.1103    
  (  1,  4,  1) (  1,  6,  1) (  1,  3,  4) (  1,  6,  2) (  1,  3,  4)
     0.1678E-01    0.8940E-02    0.3430E-02    0.2966E-02    0.4955E-03
  (  1, 10, 10) (  1,  2,  3) (  1,  4,  2) (  1,  3,  4) (  1,  4,  3)


 NO OUTPUT CONTROL FOR STRESS PERIOD    2   TIME STEP  43
 
 SOLVING FOR HEAD 
    10 ITERATIONS FOR TIME STEP  44 IN STRESS PERIOD    2

 MAXIMUM HEAD CHANGE FOR EACH ITERATION:

    HEAD CHANGE   HEAD CHANGE   HEAD CHANGE   HEAD CHANGE   HEAD CHANGE
  LAYER,ROW,COL LAYER,ROW,COL LAYER,ROW,COL LAYER,ROW,COL LAYER,ROW,COL
 ----------------------------------------------------------------------
      1.398        0.6183        0.2457        0.8845E-01    0.2905E-01
  (  1,  4,  1) (  1,  6,  1) (  1,  5,  1) (  1,  6,  2) (  1,  5,  3)
     0.9591E-02    0.3028E-02    0.1507E-02    0.1011E-02    0.1998E-03
  (  1, 10, 10) (  1,  2,  3) (  1,  6,  2) (  1,  3,  4) (  1,  4,  3)


 NO OUTPUT CONTROL FOR STRESS PERIOD    2   TIME STEP  44
 
 SOLVING FOR HEAD 
     8 ITERATIONS FOR TIME STEP  45 IN STRESS PERIOD    2

 MAXIMUM HEAD CHANGE FOR EACH ITERATION:

    HEAD CHANGE   HEAD CHANGE   HEAD CHANGE   HEAD CHANGE   HEAD CHANGE
  LAYER,ROW,COL LAYER,ROW,COL LAYER,ROW,COL LAYER,ROW,COL LAYER,ROW,COL
 ----------------------------------------------------------------------
     0.8107        0.3521        0.1301        0.4341E-01    0.1623E-01
  (  1,  7,  1) (  1,  6,  1) (  1,  5,  1) (  1,  5,  2) (  1,  3,  4)
     0.5826E-02    0.1782E-02    0.8463E-03
  (  1, 10, 10) (  1,  2,  3) (  1,  5,  2)


 OUTPUT CONTROL FOR STRESS PERIOD    2   TIME STEP  45
    PRINT BUDGET
    PRINT HEAD FOR ALL LAYERS
    SAVE BUDGET
 UBUDSV SAVING "              ET" ON UNIT 59 AT TIME STEP 45, STRESS PERIOD    2

  HEAD DEP BOUNDS   PERIOD    2   STEP  45
 BOUNDARY      1   LAYER   1   ROW    13   COL     1   RATE   -0.248177    
 BOUNDARY      2   LAYER   1   ROW    14   COL     9   RATE    0.215284    



   STREAM LEAKAGE   PERIOD    2   STEP  45

 LAYER ROW COL. STREAM  RCH.  FLOW INTO    FLOW TO  FLOW OUT OF  OVRLND.   DIRECT    STREAM    STREAM    STREAM    STREAM  STREAMBED  STREAMBED
                SEG.NO.  NO.  STRM. RCH.   AQUIFER   STRM. RCH.  RUNOFF    PRECIP      ET       HEAD      DEPTH     WIDTH  CONDCTNC.   GRADIENT

   1    1    1     1     1    2.500E+01   8.067E-01  2.419E+01  0.00E+00  0.00E+00  0.00E+00  1.09E+03  1.17E+00  1.30E+01  5.84E-01  4.60E-01
   1    2    2     1     2    2.419E+01   2.218E+00  2.198E+01  0.00E+00  0.00E+00  0.00E+00  1.09E+03  1.15E+00  1.27E+01  8.87E-01  8.34E-01
   1    3    3     1     3    2.198E+01   2.985E+00  1.899E+01  0.00E+00  0.00E+00  0.00E+00  1.08E+03  1.11E+00  1.21E+01  7.27E-01  1.37E+00
   1    3    4     1     4    1.899E+01   2.547E+00  1.644E+01  0.00E+00  0.00E+00  0.00E+00  1.08E+03  1.06E+00  1.13E+01  6.27E-01  1.35E+00
   1    4    5     2     1    6.443E+00   2.703E+00  3.741E+00  0.00E+00  0.00E+00  0.00E+00  1.07E+03  4.65E-01  1.20E+01  7.80E-01  1.15E+00
   1    5    6     2     2    3.741E+00   1.992E+00  1.748E+00  0.00E+00  0.00E+00  0.00E+00  1.07E+03  3.21E-01  1.20E+01  6.00E-01  1.11E+00
   1    6    6     2     3    1.748E+00   1.748E+00  0.000E+00  0.00E+00  0.00E+00  0.00E+00  1.06E+03  1.61E-01  1.20E+01  6.00E-01  1.02E+00
   1    7    6     2     4    0.000E+00   0.000E+00  0.000E+00  0.00E+00  0.00E+00  0.00E+00  1.06E+03  0.00E+00  1.20E+01  6.00E-01  1.00E+00
   1    8    6     2     5    0.000E+00   0.000E+00  0.000E+00  0.00E+00  0.00E+00  0.00E+00  1.05E+03  0.00E+00  1.20E+01  6.00E-01  1.00E+00
   1    3    5     3     1    1.000E+01   2.235E+00  7.765E+00  0.00E+00  0.00E+00  0.00E+00  1.08E+03  1.91E+00  9.64E+00  7.23E-01  1.55E+00
   1    3    6     3     2    7.765E+00   1.400E+00  6.366E+00  0.00E+00  0.00E+00  0.00E+00  1.07E+03  1.73E+00  8.91E+00  6.68E-01  1.05E+00
   1    3    7     3     3    6.366E+00   4.429E-01  5.923E+00  0.00E+00  0.00E+00  0.00E+00  1.07E+03  1.55E+00  8.22E+00  5.55E-01  3.99E-01
   1    4    8     3     4    5.923E+00   6.339E-01  5.289E+00  0.00E+00  0.00E+00  0.00E+00  1.07E+03  1.36E+00  7.45E+00  6.71E-01  4.72E-01
   1    5    8     3     5    5.289E+00   8.388E-01  4.450E+00  0.00E+00  0.00E+00  0.00E+00  1.06E+03  1.16E+00  6.65E+00  4.99E-01  8.40E-01
   1    6    8     3     6    4.450E+00   4.710E-01  3.979E+00  0.00E+00  0.00E+00  0.00E+00  1.06E+03  1.04E+00  6.15E+00  1.84E-01  1.28E+00
   1    5   10     4     1    1.000E+01   9.052E-01  9.095E+00  0.00E+00  0.00E+00  0.00E+00  1.08E+03  6.21E-01  1.00E+01  2.50E-01  1.21E+00
   1    5    9     4     2    9.095E+00   1.784E+00  7.311E+00  0.00E+00  0.00E+00  0.00E+00  1.07E+03  5.67E-01  1.00E+01  5.00E-01  1.19E+00
   1    6    8     4     3    7.311E+00   1.226E+00  6.086E+00  0.00E+00  0.00E+00  0.00E+00  1.06E+03  5.02E-01  1.00E+01  3.50E-01  1.17E+00
   1    6    8     5     1    1.006E+01  -2.149E-01  1.028E+01  0.00E+00  0.00E+00  0.00E+00  1.06E+03  6.76E-01  1.53E+01  6.11E-01 -1.17E-01
   1    7    7     5     2    1.028E+01   7.830E-01  9.497E+00  0.00E+00  0.00E+00  0.00E+00  1.05E+03  6.69E-01  1.50E+01  7.51E-01  3.47E-01
   1    8    7     5     3    9.497E+00   1.060E+00  8.437E+00  0.00E+00  0.00E+00  0.00E+00  1.05E+03  6.46E-01  1.42E+01  4.96E-01  7.13E-01
   1    8    6     5     4    8.437E+00   1.710E-01  8.266E+00  0.00E+00  0.00E+00  0.00E+00  1.05E+03  6.31E-01  1.36E+01  3.39E-01  1.68E-01
   1    9    6     6     1    8.266E+00   1.401E+00  6.864E+00  0.00E+00  0.00E+00  0.00E+00  1.04E+03  5.96E-01  1.20E+01  6.00E-01  7.78E-01
   1   10    7     6     2    6.864E+00   1.352E+00  5.513E+00  0.00E+00  0.00E+00  0.00E+00  1.04E+03  5.28E-01  1.20E+01  6.00E-01  7.51E-01
   1   11    7     6     3    5.513E+00   1.228E+00  4.285E+00  0.00E+00  0.00E+00  0.00E+00  1.03E+03  4.59E-01  1.20E+01  6.00E-01  6.82E-01
   1   12    7     6     4    4.285E+00   5.696E-01  3.715E+00  0.00E+00  0.00E+00  0.00E+00  1.03E+03  4.07E-01  1.20E+01  6.00E-01  3.16E-01
   1   13    7     6     5    3.715E+00  -6.652E-01  4.381E+00  0.00E+00  0.00E+00  0.00E+00  1.03E+03  4.09E-01  1.20E+01  2.40E-01 -9.24E-01
   1   14    9     7     1    1.500E+02   2.960E+00  1.470E+02  0.00E+00  0.00E+00  0.00E+00  1.04E+03  2.28E+00  5.53E+01  5.59E+00  1.77E-01
   1   13    8     7     2    1.470E+02   4.065E+00  1.430E+02  0.00E+00  0.00E+00  0.00E+00  1.03E+03  2.26E+00  5.52E+01  6.14E+00  2.21E-01
   1   13    7     7     3    1.430E+02   3.198E+00  1.398E+02  0.00E+00  0.00E+00  0.00E+00  1.03E+03  2.25E+00  5.51E+01  5.57E+00  1.91E-01
   1   13    6     8     1    1.442E+02   1.580E+00  1.426E+02  0.00E+00  0.00E+00  0.00E+00  1.02E+03  2.77E+00  4.02E+01  4.09E+00  1.29E-01
   1   13    5     8     2    1.426E+02  -1.239E+00  1.438E+02  0.00E+00  0.00E+00  0.00E+00  1.02E+03  2.77E+00  4.01E+01  4.09E+00 -1.01E-01
   1   13    4     8     3    1.438E+02  -2.952E+00  1.468E+02  0.00E+00  0.00E+00  0.00E+00  1.01E+03  2.78E+00  4.04E+01  4.11E+00 -2.39E-01
   1   13    3     8     4    1.468E+02  -3.039E+00  1.498E+02  0.00E+00  0.00E+00  0.00E+00  1.01E+03  2.80E+00  4.07E+01  4.14E+00 -2.44E-01
   1   13    2     8     5    1.498E+02  -1.106E+00  1.509E+02  0.00E+00  0.00E+00  0.00E+00  1.00E+03  2.82E+00  4.09E+01  4.17E+00 -8.85E-02
   1   13    1     8     6    1.509E+02   4.150E-01  1.505E+02  0.00E+00  0.00E+00  0.00E+00  9.95E+02  2.82E+00  4.09E+01  2.50E+00  5.53E-02



1
              HEAD IN LAYER   1 AT END OF TIME STEP  45 IN STRESS PERIOD    2
  ---------------------------------------------------------------------------

           1       2       3       4       5       6       7       8       9      10
 ...................................................................................
   1  1092.84 1089.39 6999.00 6999.00 6999.00 6999.00 6999.00 6999.00 6999.00 6999.00
   2  1089.82 1086.71 1081.37 6999.00 6999.00 1071.38 1070.64 1070.21 6999.00 6999.00
   3  6999.00 1079.20 1077.44 1073.50 1072.45 1070.54 1069.07 1068.26 6999.00 6999.00
   4  1067.58 1069.95 1069.95 1066.89 1065.32 1063.51 1063.78 1065.87 1065.80 6999.00
   5  1063.50 1063.16 1062.57 1061.30 1060.66 1060.64 1060.12 1061.94 1065.53 1067.89
   6  1058.55 1057.59 1056.81 1056.23 1056.14 1056.77 1057.11 1059.03 1061.74 1065.24
   7  1054.95 1052.37 1051.42 1051.04 1051.14 1051.76 1053.13 1055.38 1056.25 6999.00
   8  6999.00 1045.85 1045.49 1045.42 1045.65 1046.38 1047.76 1049.69 1050.01 6999.00
   9  6999.00 1038.74 1038.96 1039.39 1039.96 1040.99 1041.57 1042.65 1043.54 6999.00
  10  6999.00 1030.88 1031.69 1033.19 1034.27 1035.39 1036.46 1037.41 1038.73 1040.35
  11  6999.00 1021.31 1023.04 1026.80 1028.67 1030.45 1032.05 1033.42 1035.38 6999.00
  12  1001.14 1009.20 1014.49 1019.60 1023.12 1026.16 1028.55 1030.33 1034.17 6999.00
  13   994.53  999.96 1006.66 1012.88 1018.70 1024.26 1029.09 1034.10 1036.12 6999.00
  14  6999.00 1004.00 1008.94 1013.68 1018.87 1024.02 1029.47 1035.09 1039.33 6999.00
  15  6999.00 6999.00 1011.87 1015.05 1019.08 1022.35 6999.00 6999.00 6999.00 6999.00
1
  VOLUMETRIC BUDGET FOR ENTIRE MODEL AT END OF TIME STEP 45 IN STRESS PERIOD   2
  ------------------------------------------------------------------------------

     CUMULATIVE VOLUMES      L**3       RATES FOR THIS TIME STEP      L**3/T
     ------------------                 ------------------------

           IN:                                      IN:
           ---                                      ---
             STORAGE = 30236434400.0000               STORAGE =           0.0000
       CONSTANT HEAD =           0.0000         CONSTANT HEAD =           0.0000
               WELLS =           0.0000                 WELLS =           0.0000
                  ET =           0.0000                    ET =           0.0000
     HEAD DEP BOUNDS =   554670080.0000       HEAD DEP BOUNDS =           0.2153
            RECHARGE =  4578510340.0000              RECHARGE =           1.7937
      STREAM LEAKAGE =205572047000.0000        STREAM LEAKAGE =          43.7178

            TOTAL IN =240941662000.0000              TOTAL IN =          45.7269

          OUT:                                     OUT:
          ----                                     ----
             STORAGE = 30167210000.0000               STORAGE =           0.9444
       CONSTANT HEAD =           0.0000         CONSTANT HEAD =           0.0000
               WELLS =157787963000.0000                 WELLS =           0.0000
                  ET = 46786822100.0000                    ET =          35.3128
     HEAD DEP BOUNDS =   586131968.0000       HEAD DEP BOUNDS =           0.2482
            RECHARGE =           0.0000              RECHARGE =           0.0000
      STREAM LEAKAGE =  5614522370.0000        STREAM LEAKAGE =           9.2164

           TOTAL OUT =240942645000.0000             TOTAL OUT =          45.7217

            IN - OUT =     -988160.0000              IN - OUT =       5.1155E-03

 PERCENT DISCREPANCY =           0.00     PERCENT DISCREPANCY =           0.01






          TIME SUMMARY AT END OF TIME STEP  45 IN STRESS PERIOD    2
                    SECONDS     MINUTES      HOURS       DAYS        YEARS
                    -----------------------------------------------------------
   TIME STEP LENGTH 8.98324E+07 1.49721E+06  24953.      1039.7      2.8466    
 STRESS PERIOD TIME 9.74600E+08 1.62433E+07 2.70722E+05  11280.      30.883    
         TOTAL TIME 2.55248E+09 4.25413E+07 7.09022E+05  29543.      80.883    
1
 
 SOLVING FOR HEAD 
     7 ITERATIONS FOR TIME STEP  46 IN STRESS PERIOD    2

 MAXIMUM HEAD CHANGE FOR EACH ITERATION:

    HEAD CHANGE   HEAD CHANGE   HEAD CHANGE   HEAD CHANGE   HEAD CHANGE
  LAYER,ROW,COL LAYER,ROW,COL LAYER,ROW,COL LAYER,ROW,COL LAYER,ROW,COL
 ----------------------------------------------------------------------
     0.4564        0.1835        0.6622E-01    0.2140E-01    0.7284E-02
  (  1, 10, 10) (  1,  6,  1) (  1,  5,  1) (  1,  5,  2) (  1,  3,  4)
     0.3412E-02    0.8252E-03
  (  1, 10, 10) (  1,  2,  3)


 OUTPUT CONTROL FOR STRESS PERIOD    2   TIME STEP  46
    PRINT BUDGET
    PRINT HEAD FOR ALL LAYERS
    SAVE BUDGET
 UBUDSV SAVING "              ET" ON UNIT 59 AT TIME STEP 46, STRESS PERIOD    2

  HEAD DEP BOUNDS   PERIOD    2   STEP  46
 BOUNDARY      1   LAYER   1   ROW    13   COL     1   RATE   -0.248261    
 BOUNDARY      2   LAYER   1   ROW    14   COL     9   RATE    0.215267    



   STREAM LEAKAGE   PERIOD    2   STEP  46

 LAYER ROW COL. STREAM  RCH.  FLOW INTO    FLOW TO  FLOW OUT OF  OVRLND.   DIRECT    STREAM    STREAM    STREAM    STREAM  STREAMBED  STREAMBED
                SEG.NO.  NO.  STRM. RCH.   AQUIFER   STRM. RCH.  RUNOFF    PRECIP      ET       HEAD      DEPTH     WIDTH  CONDCTNC.   GRADIENT

   1    1    1     1     1    2.500E+01   7.985E-01  2.420E+01  0.00E+00  0.00E+00  0.00E+00  1.09E+03  1.17E+00  1.30E+01  5.84E-01  4.56E-01
   1    2    2     1     2    2.420E+01   2.177E+00  2.202E+01  0.00E+00  0.00E+00  0.00E+00  1.09E+03  1.15E+00  1.27E+01  8.87E-01  8.18E-01
   1    3    3     1     3    2.202E+01   2.988E+00  1.904E+01  0.00E+00  0.00E+00  0.00E+00  1.08E+03  1.11E+00  1.21E+01  7.27E-01  1.37E+00
   1    3    4     1     4    1.904E+01   2.551E+00  1.649E+01  0.00E+00  0.00E+00  0.00E+00  1.08E+03  1.06E+00  1.13E+01  6.28E-01  1.35E+00
   1    4    5     2     1    6.486E+00   2.704E+00  3.781E+00  0.00E+00  0.00E+00  0.00E+00  1.07E+03  4.67E-01  1.20E+01  7.80E-01  1.16E+00
   1    5    6     2     2    3.781E+00   1.994E+00  1.787E+00  0.00E+00  0.00E+00  0.00E+00  1.07E+03  3.24E-01  1.20E+01  6.00E-01  1.11E+00
   1    6    6     2     3    1.787E+00   1.787E+00  0.000E+00  0.00E+00  0.00E+00  0.00E+00  1.06E+03  1.64E-01  1.20E+01  6.00E-01  1.03E+00
   1    7    6     2     4    0.000E+00   0.000E+00  0.000E+00  0.00E+00  0.00E+00  0.00E+00  1.06E+03  0.00E+00  1.20E+01  6.00E-01  1.00E+00
   1    8    6     2     5    0.000E+00   0.000E+00  0.000E+00  0.00E+00  0.00E+00  0.00E+00  1.05E+03  0.00E+00  1.20E+01  6.00E-01  1.00E+00
   1    3    5     3     1    1.000E+01   2.208E+00  7.792E+00  0.00E+00  0.00E+00  0.00E+00  1.08E+03  1.91E+00  9.64E+00  7.23E-01  1.53E+00
   1    3    6     3     2    7.792E+00   1.386E+00  6.406E+00  0.00E+00  0.00E+00  0.00E+00  1.07E+03  1.73E+00  8.91E+00  6.68E-01  1.04E+00
   1    3    7     3     3    6.406E+00   4.298E-01  5.976E+00  0.00E+00  0.00E+00  0.00E+00  1.07E+03  1.55E+00  8.22E+00  5.55E-01  3.87E-01
   1    4    8     3     4    5.976E+00   6.192E-01  5.357E+00  0.00E+00  0.00E+00  0.00E+00  1.07E+03  1.36E+00  7.45E+00  6.71E-01  4.61E-01
   1    5    8     3     5    5.357E+00   8.164E-01  4.541E+00  0.00E+00  0.00E+00  0.00E+00  1.06E+03  1.16E+00  6.65E+00  4.99E-01  8.18E-01
   1    6    8     3     6    4.541E+00   4.635E-01  4.077E+00  0.00E+00  0.00E+00  0.00E+00  1.06E+03  1.04E+00  6.15E+00  1.84E-01  1.26E+00
   1    5   10     4     1    1.000E+01   9.052E-01  9.095E+00  0.00E+00  0.00E+00  0.00E+00  1.08E+03  6.21E-01  1.00E+01  2.50E-01  1.21E+00
   1    5    9     4     2    9.095E+00   1.784E+00  7.311E+00  0.00E+00  0.00E+00  0.00E+00  1.07E+03  5.67E-01  1.00E+01  5.00E-01  1.19E+00
   1    6    8     4     3    7.311E+00   1.226E+00  6.086E+00  0.00E+00  0.00E+00  0.00E+00  1.06E+03  5.02E-01  1.00E+01  3.50E-01  1.17E+00
   1    6    8     5     1    1.016E+01  -2.396E-01  1.040E+01  0.00E+00  0.00E+00  0.00E+00  1.06E+03  6.78E-01  1.54E+01  6.15E-01 -1.30E-01
   1    7    7     5     2    1.040E+01   7.589E-01  9.643E+00  0.00E+00  0.00E+00  0.00E+00  1.05E+03  6.72E-01  1.51E+01  7.57E-01  3.34E-01
   1    8    7     5     3    9.643E+00   1.051E+00  8.592E+00  0.00E+00  0.00E+00  0.00E+00  1.05E+03  6.50E-01  1.43E+01  5.01E-01  6.99E-01
   1    8    6     5     4    8.592E+00   1.589E-01  8.434E+00  0.00E+00  0.00E+00  0.00E+00  1.05E+03  6.35E-01  1.37E+01  3.43E-01  1.54E-01
   1    9    6     6     1    8.434E+00   1.385E+00  7.049E+00  0.00E+00  0.00E+00  0.00E+00  1.04E+03  6.04E-01  1.20E+01  6.00E-01  7.69E-01
   1   10    7     6     2    7.049E+00   1.339E+00  5.709E+00  0.00E+00  0.00E+00  0.00E+00  1.04E+03  5.38E-01  1.20E+01  6.00E-01  7.44E-01
   1   11    7     6     3    5.709E+00   1.221E+00  4.488E+00  0.00E+00  0.00E+00  0.00E+00  1.03E+03  4.70E-01  1.20E+01  6.00E-01  6.78E-01
   1   12    7     6     4    4.488E+00   5.693E-01  3.919E+00  0.00E+00  0.00E+00  0.00E+00  1.03E+03  4.19E-01  1.20E+01  6.00E-01  3.16E-01
   1   13    7     6     5    3.919E+00  -6.627E-01  4.582E+00  0.00E+00  0.00E+00  0.00E+00  1.03E+03  4.22E-01  1.20E+01  2.40E-01 -9.20E-01
   1   14    9     7     1    1.500E+02   2.958E+00  1.470E+02  0.00E+00  0.00E+00  0.00E+00  1.04E+03  2.28E+00  5.53E+01  5.59E+00  1.76E-01
   1   13    8     7     2    1.470E+02   4.059E+00  1.430E+02  0.00E+00  0.00E+00  0.00E+00  1.03E+03  2.26E+00  5.52E+01  6.14E+00  2.20E-01
   1   13    7     7     3    1.430E+02   3.189E+00  1.398E+02  0.00E+00  0.00E+00  0.00E+00  1.03E+03  2.25E+00  5.51E+01  5.57E+00  1.91E-01
   1   13    6     8     1    1.444E+02   1.573E+00  1.428E+02  0.00E+00  0.00E+00  0.00E+00  1.02E+03  2.77E+00  4.02E+01  4.09E+00  1.28E-01
   1   13    5     8     2    1.428E+02  -1.248E+00  1.441E+02  0.00E+00  0.00E+00  0.00E+00  1.02E+03  2.77E+00  4.02E+01  4.09E+00 -1.02E-01
   1   13    4     8     3    1.441E+02  -2.960E+00  1.470E+02  0.00E+00  0.00E+00  0.00E+00  1.01E+03  2.79E+00  4.04E+01  4.12E+00 -2.40E-01
   1   13    3     8     4    1.470E+02  -3.045E+00  1.501E+02  0.00E+00  0.00E+00  0.00E+00  1.01E+03  2.81E+00  4.07E+01  4.15E+00 -2.45E-01
   1   13    2     8     5    1.501E+02  -1.110E+00  1.512E+02  0.00E+00  0.00E+00  0.00E+00  1.00E+03  2.82E+00  4.09E+01  4.17E+00 -8.88E-02
   1   13    1     8     6    1.512E+02   4.141E-01  1.508E+02  0.00E+00  0.00E+00  0.00E+00  9.95E+02  2.82E+00  4.09E+01  2.50E+00  5.51E-02



1
              HEAD IN LAYER   1 AT END OF TIME STEP  46 IN STRESS PERIOD    2
  ---------------------------------------------------------------------------

           1       2       3       4       5       6       7       8       9      10
 ...................................................................................
   1  1092.86 1089.43 6999.00 6999.00 6999.00 6999.00 6999.00 6999.00 6999.00 6999.00
   2  1089.86 1086.76 1081.48 6999.00 6999.00 1071.47 1070.74 1070.34 6999.00 6999.00
   3  6999.00 1079.37 1077.57 1073.61 1072.49 1070.56 1069.10 1068.32 6999.00 6999.00
   4  1068.22 1070.31 1070.13 1067.01 1065.41 1063.58 1063.83 1065.90 1065.89 6999.00
   5  1064.17 1063.59 1062.79 1061.42 1060.75 1060.71 1060.17 1061.98 1065.60 1068.02
   6  1059.25 1058.03 1057.04 1056.35 1056.23 1056.85 1057.17 1059.07 1061.84 1065.44
   7  1055.65 1052.78 1051.63 1051.14 1051.21 1051.82 1053.17 1055.43 1056.39 6999.00
   8  6999.00 1046.15 1045.65 1045.50 1045.71 1046.42 1047.80 1049.78 1050.24 6999.00
   9  6999.00 1038.94 1039.07 1039.45 1040.01 1041.02 1041.61 1042.77 1043.82 6999.00
  10  6999.00 1031.01 1031.75 1033.23 1034.30 1035.42 1036.49 1037.53 1039.04 1040.96
  11  6999.00 1021.39 1023.07 1026.82 1028.69 1030.47 1032.07 1033.50 1035.55 6999.00
  12  1001.16 1009.23 1014.51 1019.61 1023.13 1026.17 1028.56 1030.35 1034.24 6999.00
  13   994.53  999.96 1006.67 1012.88 1018.70 1024.26 1029.09 1034.10 1036.12 6999.00
  14  6999.00 1004.01 1008.95 1013.69 1018.88 1024.03 1029.48 1035.09 1039.34 6999.00
  15  6999.00 6999.00 1011.90 1015.08 1019.11 1022.37 6999.00 6999.00 6999.00 6999.00
1
  VOLUMETRIC BUDGET FOR ENTIRE MODEL AT END OF TIME STEP 46 IN STRESS PERIOD   2
  ------------------------------------------------------------------------------

     CUMULATIVE VOLUMES      L**3       RATES FOR THIS TIME STEP      L**3/T
     ------------------                 ------------------------

           IN:                                      IN:
           ---                                      ---
             STORAGE = 30236434400.0000               STORAGE =           0.0000
       CONSTANT HEAD =           0.0000         CONSTANT HEAD =           0.0000
               WELLS =           0.0000                 WELLS =           0.0000
                  ET =           0.0000                    ET =           0.0000
     HEAD DEP BOUNDS =   575941824.0000       HEAD DEP BOUNDS =           0.2153
            RECHARGE =  4755761150.0000              RECHARGE =           1.7937
      STREAM LEAKAGE =209871929000.0000        STREAM LEAKAGE =          43.5142

            TOTAL IN =245440070000.0000              TOTAL IN =          45.5232

          OUT:                                     OUT:
          ----                                     ----
             STORAGE = 30205444100.0000               STORAGE =           0.3869
       CONSTANT HEAD =           0.0000         CONSTANT HEAD =           0.0000
               WELLS =157787963000.0000                 WELLS =           0.0000
                  ET = 50306433000.0000                    ET =          35.6179
     HEAD DEP BOUNDS =   610664064.0000       HEAD DEP BOUNDS =           0.2483
            RECHARGE =           0.0000              RECHARGE =           0.0000
      STREAM LEAKAGE =  6530142210.0000        STREAM LEAKAGE =           9.2659

           TOTAL OUT =245440643000.0000             TOTAL OUT =          45.5191

            IN - OUT =     -580032.0000              IN - OUT =       4.1801E-03

 PERCENT DISCREPANCY =           0.00     PERCENT DISCREPANCY =           0.01






          TIME SUMMARY AT END OF TIME STEP  46 IN STRESS PERIOD    2
                    SECONDS     MINUTES      HOURS       DAYS        YEARS
                    -----------------------------------------------------------
   TIME STEP LENGTH 9.88157E+07 1.64693E+06  27449.      1143.7      3.1313    
 STRESS PERIOD TIME 1.07342E+09 1.78903E+07 2.98171E+05  12424.      34.014    
         TOTAL TIME 2.65129E+09 4.41883E+07 7.36471E+05  30686.      84.014    
1
 
 SOLVING FOR HEAD 
     7 ITERATIONS FOR TIME STEP  47 IN STRESS PERIOD    2

 MAXIMUM HEAD CHANGE FOR EACH ITERATION:

    HEAD CHANGE   HEAD CHANGE   HEAD CHANGE   HEAD CHANGE   HEAD CHANGE
  LAYER,ROW,COL LAYER,ROW,COL LAYER,ROW,COL LAYER,ROW,COL LAYER,ROW,COL
 ----------------------------------------------------------------------
     0.2472        0.8918E-01    0.3214E-01    0.1027E-01    0.3278E-02
  (  1, 10, 10) (  1,  6,  1) (  1,  6,  1) (  1,  6,  1) (  1,  6,  2)
     0.1907E-02    0.3899E-03
  (  1, 10, 10) (  1,  2,  3)


 OUTPUT CONTROL FOR STRESS PERIOD    2   TIME STEP  47
    PRINT BUDGET
    PRINT HEAD FOR ALL LAYERS
    SAVE BUDGET
 UBUDSV SAVING "              ET" ON UNIT 59 AT TIME STEP 47, STRESS PERIOD    2

  HEAD DEP BOUNDS   PERIOD    2   STEP  47
 BOUNDARY      1   LAYER   1   ROW    13   COL     1   RATE   -0.248298    
 BOUNDARY      2   LAYER   1   ROW    14   COL     9   RATE    0.215262    



   STREAM LEAKAGE   PERIOD    2   STEP  47

 LAYER ROW COL. STREAM  RCH.  FLOW INTO    FLOW TO  FLOW OUT OF  OVRLND.   DIRECT    STREAM    STREAM    STREAM    STREAM  STREAMBED  STREAMBED
                SEG.NO.  NO.  STRM. RCH.   AQUIFER   STRM. RCH.  RUNOFF    PRECIP      ET       HEAD      DEPTH     WIDTH  CONDCTNC.   GRADIENT

   1    1    1     1     1    2.500E+01   7.952E-01  2.420E+01  0.00E+00  0.00E+00  0.00E+00  1.09E+03  1.17E+00  1.30E+01  5.84E-01  4.54E-01
   1    2    2     1     2    2.420E+01   2.160E+00  2.205E+01  0.00E+00  0.00E+00  0.00E+00  1.09E+03  1.15E+00  1.27E+01  8.88E-01  8.11E-01
   1    3    3     1     3    2.205E+01   2.990E+00  1.906E+01  0.00E+00  0.00E+00  0.00E+00  1.08E+03  1.11E+00  1.21E+01  7.27E-01  1.37E+00
   1    3    4     1     4    1.906E+01   2.552E+00  1.650E+01  0.00E+00  0.00E+00  0.00E+00  1.08E+03  1.06E+00  1.13E+01  6.28E-01  1.35E+00
   1    4    5     2     1    6.504E+00   2.705E+00  3.799E+00  0.00E+00  0.00E+00  0.00E+00  1.07E+03  4.68E-01  1.20E+01  7.80E-01  1.16E+00
   1    5    6     2     2    3.799E+00   1.995E+00  1.804E+00  0.00E+00  0.00E+00  0.00E+00  1.07E+03  3.25E-01  1.20E+01  6.00E-01  1.11E+00
   1    6    6     2     3    1.804E+00   1.804E+00  0.000E+00  0.00E+00  0.00E+00  0.00E+00  1.06E+03  1.65E-01  1.20E+01  6.00E-01  1.03E+00
   1    7    6     2     4    0.000E+00   0.000E+00  0.000E+00  0.00E+00  0.00E+00  0.00E+00  1.06E+03  0.00E+00  1.20E+01  6.00E-01  1.00E+00
   1    8    6     2     5    0.000E+00   0.000E+00  0.000E+00  0.00E+00  0.00E+00  0.00E+00  1.05E+03  0.00E+00  1.20E+01  6.00E-01  1.00E+00
   1    3    5     3     1    1.000E+01   2.197E+00  7.803E+00  0.00E+00  0.00E+00  0.00E+00  1.08E+03  1.91E+00  9.64E+00  7.23E-01  1.52E+00
   1    3    6     3     2    7.803E+00   1.380E+00  6.423E+00  0.00E+00  0.00E+00  0.00E+00  1.07E+03  1.73E+00  8.91E+00  6.68E-01  1.03E+00
   1    3    7     3     3    6.423E+00   4.247E-01  5.998E+00  0.00E+00  0.00E+00  0.00E+00  1.07E+03  1.55E+00  8.22E+00  5.55E-01  3.83E-01
   1    4    8     3     4    5.998E+00   6.136E-01  5.384E+00  0.00E+00  0.00E+00  0.00E+00  1.07E+03  1.36E+00  7.45E+00  6.71E-01  4.57E-01
   1    5    8     3     5    5.384E+00   8.078E-01  4.576E+00  0.00E+00  0.00E+00  0.00E+00  1.06E+03  1.16E+00  6.65E+00  4.99E-01  8.09E-01
   1    6    8     3     6    4.576E+00   4.606E-01  4.116E+00  0.00E+00  0.00E+00  0.00E+00  1.06E+03  1.04E+00  6.15E+00  1.84E-01  1.25E+00
   1    5   10     4     1    1.000E+01   9.052E-01  9.095E+00  0.00E+00  0.00E+00  0.00E+00  1.08E+03  6.21E-01  1.00E+01  2.50E-01  1.21E+00
   1    5    9     4     2    9.095E+00   1.784E+00  7.311E+00  0.00E+00  0.00E+00  0.00E+00  1.07E+03  5.67E-01  1.00E+01  5.00E-01  1.19E+00
   1    6    8     4     3    7.311E+00   1.226E+00  6.086E+00  0.00E+00  0.00E+00  0.00E+00  1.06E+03  5.02E-01  1.00E+01  3.50E-01  1.17E+00
   1    6    8     5     1    1.020E+01  -2.493E-01  1.045E+01  0.00E+00  0.00E+00  0.00E+00  1.06E+03  6.79E-01  1.54E+01  6.17E-01 -1.35E-01
   1    7    7     5     2    1.045E+01   7.489E-01  9.702E+00  0.00E+00  0.00E+00  0.00E+00  1.05E+03  6.73E-01  1.52E+01  7.60E-01  3.29E-01
   1    8    7     5     3    9.702E+00   1.047E+00  8.655E+00  0.00E+00  0.00E+00  0.00E+00  1.05E+03  6.52E-01  1.44E+01  5.03E-01  6.94E-01
   1    8    6     5     4    8.655E+00   1.537E-01  8.501E+00  0.00E+00  0.00E+00  0.00E+00  1.05E+03  6.37E-01  1.38E+01  3.45E-01  1.49E-01
   1    9    6     6     1    8.501E+00   1.378E+00  7.123E+00  0.00E+00  0.00E+00  0.00E+00  1.04E+03  6.08E-01  1.20E+01  6.00E-01  7.66E-01
   1   10    7     6     2    7.123E+00   1.334E+00  5.789E+00  0.00E+00  0.00E+00  0.00E+00  1.04E+03  5.42E-01  1.20E+01  6.00E-01  7.41E-01
   1   11    7     6     3    5.789E+00   1.218E+00  4.571E+00  0.00E+00  0.00E+00  0.00E+00  1.03E+03  4.75E-01  1.20E+01  6.00E-01  6.77E-01
   1   12    7     6     4    4.571E+00   5.690E-01  4.002E+00  0.00E+00  0.00E+00  0.00E+00  1.03E+03  4.24E-01  1.20E+01  6.00E-01  3.16E-01
   1   13    7     6     5    4.002E+00  -6.617E-01  4.664E+00  0.00E+00  0.00E+00  0.00E+00  1.03E+03  4.27E-01  1.20E+01  2.40E-01 -9.19E-01
   1   14    9     7     1    1.500E+02   2.957E+00  1.470E+02  0.00E+00  0.00E+00  0.00E+00  1.04E+03  2.28E+00  5.53E+01  5.59E+00  1.76E-01
   1   13    8     7     2    1.470E+02   4.057E+00  1.430E+02  0.00E+00  0.00E+00  0.00E+00  1.03E+03  2.26E+00  5.52E+01  6.14E+00  2.20E-01
   1   13    7     7     3    1.430E+02   3.184E+00  1.398E+02  0.00E+00  0.00E+00  0.00E+00  1.03E+03  2.25E+00  5.51E+01  5.57E+00  1.91E-01
   1   13    6     8     1    1.445E+02   1.570E+00  1.429E+02  0.00E+00  0.00E+00  0.00E+00  1.02E+03  2.77E+00  4.02E+01  4.10E+00  1.28E-01
   1   13    5     8     2    1.429E+02  -1.251E+00  1.441E+02  0.00E+00  0.00E+00  0.00E+00  1.02E+03  2.77E+00  4.02E+01  4.09E+00 -1.02E-01
   1   13    4     8     3    1.441E+02  -2.964E+00  1.471E+02  0.00E+00  0.00E+00  0.00E+00  1.01E+03  2.79E+00  4.04E+01  4.12E+00 -2.40E-01
   1   13    3     8     4    1.471E+02  -3.048E+00  1.502E+02  0.00E+00  0.00E+00  0.00E+00  1.01E+03  2.81E+00  4.07E+01  4.15E+00 -2.45E-01
   1   13    2     8     5    1.502E+02  -1.111E+00  1.513E+02  0.00E+00  0.00E+00  0.00E+00  1.00E+03  2.82E+00  4.09E+01  4.17E+00 -8.88E-02
   1   13    1     8     6    1.513E+02   4.136E-01  1.509E+02  0.00E+00  0.00E+00  0.00E+00  9.95E+02  2.82E+00  4.10E+01  2.50E+00  5.51E-02



1
              HEAD IN LAYER   1 AT END OF TIME STEP  47 IN STRESS PERIOD    2
  ---------------------------------------------------------------------------

           1       2       3       4       5       6       7       8       9      10
 ...................................................................................
   1  1092.86 1089.45 6999.00 6999.00 6999.00 6999.00 6999.00 6999.00 6999.00 6999.00
   2  1089.88 1086.78 1081.53 6999.00 6999.00 1071.50 1070.78 1070.39 6999.00 6999.00
   3  6999.00 1079.44 1077.63 1073.66 1072.51 1070.57 1069.11 1068.35 6999.00 6999.00
   4  1068.53 1070.48 1070.21 1067.06 1065.44 1063.61 1063.85 1065.90 1065.91 6999.00
   5  1064.50 1063.79 1062.89 1061.48 1060.79 1060.74 1060.19 1062.00 1065.63 1068.06
   6  1059.59 1058.24 1057.15 1056.40 1056.26 1056.88 1057.19 1059.08 1061.88 1065.51
   7  1055.99 1052.98 1051.72 1051.18 1051.24 1051.85 1053.19 1055.45 1056.44 6999.00
   8  6999.00 1046.28 1045.72 1045.53 1045.74 1046.44 1047.82 1049.82 1050.33 6999.00
   9  6999.00 1039.03 1039.11 1039.47 1040.03 1041.04 1041.63 1042.82 1043.94 6999.00
  10  6999.00 1031.07 1031.77 1033.25 1034.31 1035.43 1036.50 1037.58 1039.19 1041.29
  11  6999.00 1021.42 1023.09 1026.83 1028.70 1030.48 1032.08 1033.53 1035.64 6999.00
  12  1001.17 1009.24 1014.51 1019.62 1023.13 1026.18 1028.57 1030.37 1034.27 6999.00
  13   994.53  999.96 1006.67 1012.88 1018.70 1024.26 1029.09 1034.10 1036.13 6999.00
  14  6999.00 1004.01 1008.95 1013.70 1018.89 1024.03 1029.48 1035.09 1039.34 6999.00
  15  6999.00 6999.00 1011.91 1015.09 1019.12 1022.38 6999.00 6999.00 6999.00 6999.00
1
  VOLUMETRIC BUDGET FOR ENTIRE MODEL AT END OF TIME STEP 47 IN STRESS PERIOD   2
  ------------------------------------------------------------------------------

     CUMULATIVE VOLUMES      L**3       RATES FOR THIS TIME STEP      L**3/T
     ------------------                 ------------------------

           IN:                                      IN:
           ---                                      ---
             STORAGE = 30236434400.0000               STORAGE =           0.0000
       CONSTANT HEAD =           0.0000         CONSTANT HEAD =           0.0000
               WELLS =           0.0000                 WELLS =           0.0000
                  ET =           0.0000                    ET =           0.0000
     HEAD DEP BOUNDS =   599340224.0000       HEAD DEP BOUNDS =           0.2153
            RECHARGE =  4950736900.0000              RECHARGE =           1.7937
      STREAM LEAKAGE =214592586000.0000        STREAM LEAKAGE =          43.4293

            TOTAL IN =250379092000.0000              TOTAL IN =          45.4383

          OUT:                                     OUT:
          ----                                     ----
             STORAGE = 30222501900.0000               STORAGE =           0.1569
       CONSTANT HEAD =           0.0000         CONSTANT HEAD =           0.0000
               WELLS =157787963000.0000                 WELLS =           0.0000
                  ET = 54191870000.0000                    ET =          35.7455
     HEAD DEP BOUNDS =   637653376.0000       HEAD DEP BOUNDS =           0.2483
            RECHARGE =           0.0000              RECHARGE =           0.0000
      STREAM LEAKAGE =  7539450370.0000        STREAM LEAKAGE =           9.2855

           TOTAL OUT =250379436000.0000             TOTAL OUT =          45.4362

            IN - OUT =     -341696.0000              IN - OUT =       2.1053E-03

 PERCENT DISCREPANCY =           0.00     PERCENT DISCREPANCY =           0.00






          TIME SUMMARY AT END OF TIME STEP  47 IN STRESS PERIOD    2
                    SECONDS     MINUTES      HOURS       DAYS        YEARS
                    -----------------------------------------------------------
   TIME STEP LENGTH 1.08697E+08 1.81162E+06  30194.      1258.1      3.4444    
 STRESS PERIOD TIME 1.18211E+09 1.97019E+07 3.28365E+05  13682.      37.459    
         TOTAL TIME 2.75999E+09 4.59999E+07 7.66665E+05  31944.      87.459    
1
 
 SOLVING FOR HEAD 
     7 ITERATIONS FOR TIME STEP  48 IN STRESS PERIOD    2

 MAXIMUM HEAD CHANGE FOR EACH ITERATION:

    HEAD CHANGE   HEAD CHANGE   HEAD CHANGE   HEAD CHANGE   HEAD CHANGE
  LAYER,ROW,COL LAYER,ROW,COL LAYER,ROW,COL LAYER,ROW,COL LAYER,ROW,COL
 ----------------------------------------------------------------------
     0.1243        0.4058E-01    0.1478E-01    0.4738E-02    0.1555E-02
  (  1, 10, 10) (  1,  6,  1) (  1,  6,  1) (  1,  6,  1) (  1, 10, 10)
     0.1012E-02    0.1994E-03
  (  1, 10, 10) (  1, 10, 10)


 OUTPUT CONTROL FOR STRESS PERIOD    2   TIME STEP  48
    PRINT BUDGET
    PRINT HEAD FOR ALL LAYERS
    SAVE BUDGET
 UBUDSV SAVING "              ET" ON UNIT 59 AT TIME STEP 48, STRESS PERIOD    2

  HEAD DEP BOUNDS   PERIOD    2   STEP  48
 BOUNDARY      1   LAYER   1   ROW    13   COL     1   RATE   -0.248314    
 BOUNDARY      2   LAYER   1   ROW    14   COL     9   RATE    0.215261    



   STREAM LEAKAGE   PERIOD    2   STEP  48

 LAYER ROW COL. STREAM  RCH.  FLOW INTO    FLOW TO  FLOW OUT OF  OVRLND.   DIRECT    STREAM    STREAM    STREAM    STREAM  STREAMBED  STREAMBED
                SEG.NO.  NO.  STRM. RCH.   AQUIFER   STRM. RCH.  RUNOFF    PRECIP      ET       HEAD      DEPTH     WIDTH  CONDCTNC.   GRADIENT

   1    1    1     1     1    2.500E+01   7.939E-01  2.421E+01  0.00E+00  0.00E+00  0.00E+00  1.09E+03  1.17E+00  1.30E+01  5.84E-01  4.53E-01
   1    2    2     1     2    2.421E+01   2.152E+00  2.205E+01  0.00E+00  0.00E+00  0.00E+00  1.09E+03  1.15E+00  1.27E+01  8.88E-01  8.08E-01
   1    3    3     1     3    2.205E+01   2.990E+00  1.906E+01  0.00E+00  0.00E+00  0.00E+00  1.08E+03  1.11E+00  1.21E+01  7.28E-01  1.37E+00
   1    3    4     1     4    1.906E+01   2.553E+00  1.651E+01  0.00E+00  0.00E+00  0.00E+00  1.08E+03  1.06E+00  1.13E+01  6.28E-01  1.35E+00
   1    4    5     2     1    6.511E+00   2.705E+00  3.806E+00  0.00E+00  0.00E+00  0.00E+00  1.07E+03  4.68E-01  1.20E+01  7.80E-01  1.16E+00
   1    5    6     2     2    3.806E+00   1.995E+00  1.811E+00  0.00E+00  0.00E+00  0.00E+00  1.07E+03  3.25E-01  1.20E+01  6.00E-01  1.11E+00
   1    6    6     2     3    1.811E+00   1.811E+00  0.000E+00  0.00E+00  0.00E+00  0.00E+00  1.06E+03  1.65E-01  1.20E+01  6.00E-01  1.03E+00
   1    7    6     2     4    0.000E+00   0.000E+00  0.000E+00  0.00E+00  0.00E+00  0.00E+00  1.06E+03  0.00E+00  1.20E+01  6.00E-01  1.00E+00
   1    8    6     2     5    0.000E+00   0.000E+00  0.000E+00  0.00E+00  0.00E+00  0.00E+00  1.05E+03  0.00E+00  1.20E+01  6.00E-01  1.00E+00
   1    3    5     3     1    1.000E+01   2.193E+00  7.807E+00  0.00E+00  0.00E+00  0.00E+00  1.08E+03  1.91E+00  9.64E+00  7.23E-01  1.52E+00
   1    3    6     3     2    7.807E+00   1.378E+00  6.430E+00  0.00E+00  0.00E+00  0.00E+00  1.07E+03  1.73E+00  8.91E+00  6.68E-01  1.03E+00
   1    3    7     3     3    6.430E+00   4.228E-01  6.007E+00  0.00E+00  0.00E+00  0.00E+00  1.07E+03  1.55E+00  8.22E+00  5.55E-01  3.81E-01
   1    4    8     3     4    6.007E+00   6.116E-01  5.395E+00  0.00E+00  0.00E+00  0.00E+00  1.07E+03  1.36E+00  7.45E+00  6.71E-01  4.56E-01
   1    5    8     3     5    5.395E+00   8.045E-01  4.591E+00  0.00E+00  0.00E+00  0.00E+00  1.06E+03  1.16E+00  6.65E+00  4.99E-01  8.06E-01
   1    6    8     3     6    4.591E+00   4.595E-01  4.131E+00  0.00E+00  0.00E+00  0.00E+00  1.06E+03  1.04E+00  6.15E+00  1.84E-01  1.25E+00
   1    5   10     4     1    1.000E+01   9.052E-01  9.095E+00  0.00E+00  0.00E+00  0.00E+00  1.08E+03  6.21E-01  1.00E+01  2.50E-01  1.21E+00
   1    5    9     4     2    9.095E+00   1.784E+00  7.311E+00  0.00E+00  0.00E+00  0.00E+00  1.07E+03  5.67E-01  1.00E+01  5.00E-01  1.19E+00
   1    6    8     4     3    7.311E+00   1.226E+00  6.086E+00  0.00E+00  0.00E+00  0.00E+00  1.06E+03  5.02E-01  1.00E+01  3.50E-01  1.17E+00
   1    6    8     5     1    1.022E+01  -2.531E-01  1.047E+01  0.00E+00  0.00E+00  0.00E+00  1.06E+03  6.80E-01  1.54E+01  6.17E-01 -1.37E-01
   1    7    7     5     2    1.047E+01   7.448E-01  9.725E+00  0.00E+00  0.00E+00  0.00E+00  1.05E+03  6.74E-01  1.52E+01  7.61E-01  3.26E-01
   1    8    7     5     3    9.725E+00   1.045E+00  8.680E+00  0.00E+00  0.00E+00  0.00E+00  1.05E+03  6.52E-01  1.44E+01  5.04E-01  6.91E-01
   1    8    6     5     4    8.680E+00   1.515E-01  8.528E+00  0.00E+00  0.00E+00  0.00E+00  1.05E+03  6.37E-01  1.38E+01  3.46E-01  1.46E-01
   1    9    6     6     1    8.528E+00   1.376E+00  7.153E+00  0.00E+00  0.00E+00  0.00E+00  1.04E+03  6.09E-01  1.20E+01  6.00E-01  7.64E-01
   1   10    7     6     2    7.153E+00   1.331E+00  5.821E+00  0.00E+00  0.00E+00  0.00E+00  1.04E+03  5.44E-01  1.20E+01  6.00E-01  7.40E-01
   1   11    7     6     3    5.821E+00   1.217E+00  4.605E+00  0.00E+00  0.00E+00  0.00E+00  1.03E+03  4.77E-01  1.20E+01  6.00E-01  6.76E-01
   1   12    7     6     4    4.605E+00   5.688E-01  4.036E+00  0.00E+00  0.00E+00  0.00E+00  1.03E+03  4.26E-01  1.20E+01  6.00E-01  3.16E-01
   1   13    7     6     5    4.036E+00  -6.614E-01  4.697E+00  0.00E+00  0.00E+00  0.00E+00  1.03E+03  4.29E-01  1.20E+01  2.40E-01 -9.19E-01
   1   14    9     7     1    1.500E+02   2.957E+00  1.470E+02  0.00E+00  0.00E+00  0.00E+00  1.04E+03  2.28E+00  5.53E+01  5.59E+00  1.76E-01
   1   13    8     7     2    1.470E+02   4.055E+00  1.430E+02  0.00E+00  0.00E+00  0.00E+00  1.03E+03  2.26E+00  5.52E+01  6.14E+00  2.20E-01
   1   13    7     7     3    1.430E+02   3.182E+00  1.398E+02  0.00E+00  0.00E+00  0.00E+00  1.03E+03  2.25E+00  5.51E+01  5.57E+00  1.90E-01
   1   13    6     8     1    1.445E+02   1.569E+00  1.429E+02  0.00E+00  0.00E+00  0.00E+00  1.02E+03  2.77E+00  4.02E+01  4.10E+00  1.28E-01
   1   13    5     8     2    1.429E+02  -1.253E+00  1.442E+02  0.00E+00  0.00E+00  0.00E+00  1.02E+03  2.77E+00  4.02E+01  4.09E+00 -1.02E-01
   1   13    4     8     3    1.442E+02  -2.965E+00  1.472E+02  0.00E+00  0.00E+00  0.00E+00  1.01E+03  2.79E+00  4.04E+01  4.12E+00 -2.40E-01
   1   13    3     8     4    1.472E+02  -3.049E+00  1.502E+02  0.00E+00  0.00E+00  0.00E+00  1.01E+03  2.81E+00  4.07E+01  4.15E+00 -2.45E-01
   1   13    2     8     5    1.502E+02  -1.112E+00  1.513E+02  0.00E+00  0.00E+00  0.00E+00  1.00E+03  2.82E+00  4.09E+01  4.17E+00 -8.89E-02
   1   13    1     8     6    1.513E+02   4.134E-01  1.509E+02  0.00E+00  0.00E+00  0.00E+00  9.95E+02  2.82E+00  4.10E+01  2.50E+00  5.50E-02



1
              HEAD IN LAYER   1 AT END OF TIME STEP  48 IN STRESS PERIOD    2
  ---------------------------------------------------------------------------

           1       2       3       4       5       6       7       8       9      10
 ...................................................................................
   1  1092.86 1089.46 6999.00 6999.00 6999.00 6999.00 6999.00 6999.00 6999.00 6999.00
   2  1089.89 1086.79 1081.55 6999.00 6999.00 1071.51 1070.80 1070.41 6999.00 6999.00
   3  6999.00 1079.47 1077.66 1073.68 1072.51 1070.57 1069.11 1068.36 6999.00 6999.00
   4  1068.67 1070.55 1070.25 1067.08 1065.46 1063.62 1063.86 1065.91 1065.92 6999.00
   5  1064.65 1063.88 1062.94 1061.50 1060.81 1060.75 1060.20 1062.01 1065.64 1068.08
   6  1059.74 1058.33 1057.19 1056.42 1056.28 1056.89 1057.20 1059.09 1061.89 1065.53
   7  1056.14 1053.06 1051.76 1051.20 1051.26 1051.86 1053.19 1055.46 1056.46 6999.00
   8  6999.00 1046.34 1045.76 1045.54 1045.75 1046.45 1047.83 1049.84 1050.37 6999.00
   9  6999.00 1039.07 1039.14 1039.48 1040.03 1041.04 1041.63 1042.84 1044.00 6999.00
  10  6999.00 1031.09 1031.79 1033.26 1034.32 1035.43 1036.51 1037.61 1039.27 1041.45
  11  6999.00 1021.43 1023.10 1026.84 1028.70 1030.48 1032.09 1033.55 1035.68 6999.00
  12  1001.17 1009.24 1014.51 1019.62 1023.14 1026.18 1028.57 1030.37 1034.28 6999.00
  13   994.53  999.96 1006.67 1012.88 1018.70 1024.26 1029.09 1034.10 1036.13 6999.00
  14  6999.00 1004.01 1008.95 1013.70 1018.89 1024.03 1029.48 1035.09 1039.34 6999.00
  15  6999.00 6999.00 1011.92 1015.10 1019.12 1022.39 6999.00 6999.00 6999.00 6999.00
1
  VOLUMETRIC BUDGET FOR ENTIRE MODEL AT END OF TIME STEP 48 IN STRESS PERIOD   2
  ------------------------------------------------------------------------------

     CUMULATIVE VOLUMES      L**3       RATES FOR THIS TIME STEP      L**3/T
     ------------------                 ------------------------

           IN:                                      IN:
           ---                                      ---
             STORAGE = 30236434400.0000               STORAGE =           0.0000
       CONSTANT HEAD =           0.0000         CONSTANT HEAD =           0.0000
               WELLS =           0.0000                 WELLS =           0.0000
                  ET =           0.0000                    ET =           0.0000
     HEAD DEP BOUNDS =   625078272.0000       HEAD DEP BOUNDS =           0.2153
            RECHARGE =  5165210110.0000              RECHARGE =           1.7937
      STREAM LEAKAGE =219781071000.0000        STREAM LEAKAGE =          43.3939

            TOTAL IN =255807799000.0000              TOTAL IN =          45.4029

          OUT:                                     OUT:
          ----                                     ----
             STORAGE = 30229899300.0000               STORAGE =       6.1876E-02
       CONSTANT HEAD =           0.0000         CONSTANT HEAD =           0.0000
               WELLS =157787963000.0000                 WELLS =           0.0000
                  ET = 58472206300.0000                    ET =          35.7986
     HEAD DEP BOUNDS =   667343552.0000       HEAD DEP BOUNDS =           0.2483
            RECHARGE =           0.0000              RECHARGE =           0.0000
      STREAM LEAKAGE =  8650691580.0000        STREAM LEAKAGE =           9.2939

           TOTAL OUT =255808111000.0000             TOTAL OUT =          45.4027

            IN - OUT =     -310464.0000              IN - OUT =       1.8961E-04

 PERCENT DISCREPANCY =           0.00     PERCENT DISCREPANCY =           0.00






          TIME SUMMARY AT END OF TIME STEP  48 IN STRESS PERIOD    2
                    SECONDS     MINUTES      HOURS       DAYS        YEARS
                    -----------------------------------------------------------
   TIME STEP LENGTH 1.19567E+08 1.99278E+06  33213.      1383.9      3.7888    
 STRESS PERIOD TIME 1.30168E+09 2.16947E+07 3.61578E+05  15066.      41.248    
         TOTAL TIME 2.87956E+09 4.79927E+07 7.99878E+05  33328.      91.248    
1
 
 SOLVING FOR HEAD 
     5 ITERATIONS FOR TIME STEP  49 IN STRESS PERIOD    2

 MAXIMUM HEAD CHANGE FOR EACH ITERATION:

    HEAD CHANGE   HEAD CHANGE   HEAD CHANGE   HEAD CHANGE   HEAD CHANGE
  LAYER,ROW,COL LAYER,ROW,COL LAYER,ROW,COL LAYER,ROW,COL LAYER,ROW,COL
 ----------------------------------------------------------------------
     0.5840E-01    0.1734E-01    0.6413E-02    0.2069E-02    0.7487E-03
  (  1, 10, 10) (  1,  6,  1) (  1,  6,  1) (  1,  6,  1) (  1, 10, 10)


 OUTPUT CONTROL FOR STRESS PERIOD    2   TIME STEP  49
    PRINT BUDGET
    PRINT HEAD FOR ALL LAYERS
    SAVE BUDGET
 UBUDSV SAVING "              ET" ON UNIT 59 AT TIME STEP 49, STRESS PERIOD    2

  HEAD DEP BOUNDS   PERIOD    2   STEP  49
 BOUNDARY      1   LAYER   1   ROW    13   COL     1   RATE   -0.248318    
 BOUNDARY      2   LAYER   1   ROW    14   COL     9   RATE    0.215258    



   STREAM LEAKAGE   PERIOD    2   STEP  49

 LAYER ROW COL. STREAM  RCH.  FLOW INTO    FLOW TO  FLOW OUT OF  OVRLND.   DIRECT    STREAM    STREAM    STREAM    STREAM  STREAMBED  STREAMBED
                SEG.NO.  NO.  STRM. RCH.   AQUIFER   STRM. RCH.  RUNOFF    PRECIP      ET       HEAD      DEPTH     WIDTH  CONDCTNC.   GRADIENT

   1    1    1     1     1    2.500E+01   7.934E-01  2.421E+01  0.00E+00  0.00E+00  0.00E+00  1.09E+03  1.17E+00  1.30E+01  5.84E-01  4.53E-01
   1    2    2     1     2    2.421E+01   2.149E+00  2.206E+01  0.00E+00  0.00E+00  0.00E+00  1.09E+03  1.15E+00  1.27E+01  8.88E-01  8.07E-01
   1    3    3     1     3    2.206E+01   2.990E+00  1.907E+01  0.00E+00  0.00E+00  0.00E+00  1.08E+03  1.11E+00  1.21E+01  7.28E-01  1.37E+00
   1    3    4     1     4    1.907E+01   2.553E+00  1.651E+01  0.00E+00  0.00E+00  0.00E+00  1.08E+03  1.06E+00  1.13E+01  6.28E-01  1.35E+00
   1    4    5     2     1    6.514E+00   2.706E+00  3.809E+00  0.00E+00  0.00E+00  0.00E+00  1.07E+03  4.69E-01  1.20E+01  7.80E-01  1.16E+00
   1    5    6     2     2    3.809E+00   1.995E+00  1.813E+00  0.00E+00  0.00E+00  0.00E+00  1.07E+03  3.25E-01  1.20E+01  6.00E-01  1.11E+00
   1    6    6     2     3    1.813E+00   1.813E+00  0.000E+00  0.00E+00  0.00E+00  0.00E+00  1.06E+03  1.65E-01  1.20E+01  6.00E-01  1.03E+00
   1    7    6     2     4    0.000E+00   0.000E+00  0.000E+00  0.00E+00  0.00E+00  0.00E+00  1.06E+03  0.00E+00  1.20E+01  6.00E-01  1.00E+00
   1    8    6     2     5    0.000E+00   0.000E+00  0.000E+00  0.00E+00  0.00E+00  0.00E+00  1.05E+03  0.00E+00  1.20E+01  6.00E-01  1.00E+00
   1    3    5     3     1    1.000E+01   2.191E+00  7.809E+00  0.00E+00  0.00E+00  0.00E+00  1.08E+03  1.91E+00  9.64E+00  7.23E-01  1.52E+00
   1    3    6     3     2    7.809E+00   1.377E+00  6.432E+00  0.00E+00  0.00E+00  0.00E+00  1.07E+03  1.73E+00  8.91E+00  6.68E-01  1.03E+00
   1    3    7     3     3    6.432E+00   4.221E-01  6.010E+00  0.00E+00  0.00E+00  0.00E+00  1.07E+03  1.55E+00  8.22E+00  5.55E-01  3.80E-01
   1    4    8     3     4    6.010E+00   6.108E-01  5.399E+00  0.00E+00  0.00E+00  0.00E+00  1.07E+03  1.36E+00  7.45E+00  6.71E-01  4.55E-01
   1    5    8     3     5    5.399E+00   8.033E-01  4.596E+00  0.00E+00  0.00E+00  0.00E+00  1.06E+03  1.16E+00  6.65E+00  4.99E-01  8.05E-01
   1    6    8     3     6    4.596E+00   4.591E-01  4.137E+00  0.00E+00  0.00E+00  0.00E+00  1.06E+03  1.04E+00  6.15E+00  1.84E-01  1.24E+00
   1    5   10     4     1    1.000E+01   9.052E-01  9.095E+00  0.00E+00  0.00E+00  0.00E+00  1.08E+03  6.21E-01  1.00E+01  2.50E-01  1.21E+00
   1    5    9     4     2    9.095E+00   1.784E+00  7.311E+00  0.00E+00  0.00E+00  0.00E+00  1.07E+03  5.67E-01  1.00E+01  5.00E-01  1.19E+00
   1    6    8     4     3    7.311E+00   1.226E+00  6.086E+00  0.00E+00  0.00E+00  0.00E+00  1.06E+03  5.02E-01  1.00E+01  3.50E-01  1.17E+00
   1    6    8     5     1    1.022E+01  -2.546E-01  1.048E+01  0.00E+00  0.00E+00  0.00E+00  1.06E+03  6.80E-01  1.54E+01  6.18E-01 -1.37E-01
   1    7    7     5     2    1.048E+01   7.431E-01  9.734E+00  0.00E+00  0.00E+00  0.00E+00  1.05E+03  6.74E-01  1.52E+01  7.61E-01  3.25E-01
   1    8    7     5     3    9.734E+00   1.044E+00  8.690E+00  0.00E+00  0.00E+00  0.00E+00  1.05E+03  6.53E-01  1.44E+01  5.04E-01  6.91E-01
   1    8    6     5     4    8.690E+00   1.506E-01  8.539E+00  0.00E+00  0.00E+00  0.00E+00  1.05E+03  6.37E-01  1.38E+01  3.46E-01  1.45E-01
   1    9    6     6     1    8.539E+00   1.374E+00  7.165E+00  0.00E+00  0.00E+00  0.00E+00  1.04E+03  6.09E-01  1.20E+01  6.00E-01  7.64E-01
   1   10    7     6     2    7.165E+00   1.330E+00  5.834E+00  0.00E+00  0.00E+00  0.00E+00  1.04E+03  5.44E-01  1.20E+01  6.00E-01  7.39E-01
   1   11    7     6     3    5.834E+00   1.216E+00  4.618E+00  0.00E+00  0.00E+00  0.00E+00  1.03E+03  4.77E-01  1.20E+01  6.00E-01  6.76E-01
   1   12    7     6     4    4.618E+00   5.687E-01  4.050E+00  0.00E+00  0.00E+00  0.00E+00  1.03E+03  4.27E-01  1.20E+01  6.00E-01  3.16E-01
   1   13    7     6     5    4.050E+00  -6.612E-01  4.711E+00  0.00E+00  0.00E+00  0.00E+00  1.03E+03  4.29E-01  1.20E+01  2.40E-01 -9.18E-01
   1   14    9     7     1    1.500E+02   2.957E+00  1.470E+02  0.00E+00  0.00E+00  0.00E+00  1.04E+03  2.28E+00  5.53E+01  5.59E+00  1.76E-01
   1   13    8     7     2    1.470E+02   4.055E+00  1.430E+02  0.00E+00  0.00E+00  0.00E+00  1.03E+03  2.26E+00  5.52E+01  6.14E+00  2.20E-01
   1   13    7     7     3    1.430E+02   3.182E+00  1.398E+02  0.00E+00  0.00E+00  0.00E+00  1.03E+03  2.25E+00  5.51E+01  5.57E+00  1.90E-01
   1   13    6     8     1    1.445E+02   1.569E+00  1.429E+02  0.00E+00  0.00E+00  0.00E+00  1.02E+03  2.77E+00  4.02E+01  4.10E+00  1.28E-01
   1   13    5     8     2    1.429E+02  -1.253E+00  1.442E+02  0.00E+00  0.00E+00  0.00E+00  1.02E+03  2.77E+00  4.02E+01  4.09E+00 -1.02E-01
   1   13    4     8     3    1.442E+02  -2.966E+00  1.472E+02  0.00E+00  0.00E+00  0.00E+00  1.01E+03  2.79E+00  4.04E+01  4.12E+00 -2.40E-01
   1   13    3     8     4    1.472E+02  -3.050E+00  1.502E+02  0.00E+00  0.00E+00  0.00E+00  1.01E+03  2.81E+00  4.07E+01  4.15E+00 -2.45E-01
   1   13    2     8     5    1.502E+02  -1.112E+00  1.513E+02  0.00E+00  0.00E+00  0.00E+00  1.00E+03  2.82E+00  4.09E+01  4.17E+00 -8.89E-02
   1   13    1     8     6    1.513E+02   4.133E-01  1.509E+02  0.00E+00  0.00E+00  0.00E+00  9.95E+02  2.82E+00  4.10E+01  2.50E+00  5.50E-02



1
              HEAD IN LAYER   1 AT END OF TIME STEP  49 IN STRESS PERIOD    2
  ---------------------------------------------------------------------------

           1       2       3       4       5       6       7       8       9      10
 ...................................................................................
   1  1092.86 1089.46 6999.00 6999.00 6999.00 6999.00 6999.00 6999.00 6999.00 6999.00
   2  1089.90 1086.79 1081.55 6999.00 6999.00 1071.52 1070.80 1070.42 6999.00 6999.00
   3  6999.00 1079.49 1077.67 1073.69 1072.51 1070.58 1069.11 1068.36 6999.00 6999.00
   4  1068.73 1070.58 1070.26 1067.09 1065.47 1063.62 1063.86 1065.91 1065.93 6999.00
   5  1064.71 1063.92 1062.96 1061.51 1060.81 1060.76 1060.21 1062.01 1065.65 1068.08
   6  1059.81 1058.37 1057.21 1056.43 1056.29 1056.90 1057.20 1059.09 1061.89 1065.54
   7  1056.21 1053.10 1051.78 1051.21 1051.26 1051.86 1053.20 1055.46 1056.47 6999.00
   8  6999.00 1046.36 1045.77 1045.55 1045.75 1046.45 1047.83 1049.84 1050.39 6999.00
   9  6999.00 1039.09 1039.14 1039.49 1040.04 1041.05 1041.64 1042.85 1044.03 6999.00
  10  6999.00 1031.10 1031.79 1033.26 1034.32 1035.44 1036.51 1037.62 1039.30 1041.53
  11  6999.00 1021.44 1023.10 1026.84 1028.70 1030.49 1032.09 1033.55 1035.69 6999.00
  12  1001.17 1009.24 1014.52 1019.62 1023.14 1026.18 1028.57 1030.37 1034.29 6999.00
  13   994.53  999.96 1006.67 1012.88 1018.70 1024.26 1029.09 1034.10 1036.13 6999.00
  14  6999.00 1004.01 1008.95 1013.70 1018.89 1024.03 1029.48 1035.09 1039.34 6999.00
  15  6999.00 6999.00 1011.92 1015.10 1019.13 1022.39 6999.00 6999.00 6999.00 6999.00
1
  VOLUMETRIC BUDGET FOR ENTIRE MODEL AT END OF TIME STEP 49 IN STRESS PERIOD   2
  ------------------------------------------------------------------------------

     CUMULATIVE VOLUMES      L**3       RATES FOR THIS TIME STEP      L**3/T
     ------------------                 ------------------------

           IN:                                      IN:
           ---                                      ---
             STORAGE = 30236434400.0000               STORAGE =           0.0000
       CONSTANT HEAD =           0.0000         CONSTANT HEAD =           0.0000
               WELLS =           0.0000                 WELLS =           0.0000
                  ET =           0.0000                    ET =           0.0000
     HEAD DEP BOUNDS =   653389824.0000       HEAD DEP BOUNDS =           0.2153
            RECHARGE =  5401130500.0000              RECHARGE =           1.7937
      STREAM LEAKAGE =225486602000.0000        STREAM LEAKAGE =          43.3802

            TOTAL IN =261777555000.0000              TOTAL IN =          45.3892

          OUT:                                     OUT:
          ----                                     ----
             STORAGE = 30232967200.0000               STORAGE =       2.3320E-02
       CONSTANT HEAD =           0.0000         CONSTANT HEAD =           0.0000
               WELLS =157787963000.0000                 WELLS =           0.0000
                  ET = 63183380500.0000                    ET =          35.8200
     HEAD DEP BOUNDS =   700003200.0000       HEAD DEP BOUNDS =           0.2483
            RECHARGE =           0.0000              RECHARGE =           0.0000
      STREAM LEAKAGE =  9873448960.0000        STREAM LEAKAGE =           9.2969

           TOTAL OUT =261777768000.0000             TOTAL OUT =          45.3885

            IN - OUT =     -206208.0000              IN - OUT =       7.4743E-04

 PERCENT DISCREPANCY =           0.00     PERCENT DISCREPANCY =           0.00






          TIME SUMMARY AT END OF TIME STEP  49 IN STRESS PERIOD    2
                    SECONDS     MINUTES      HOURS       DAYS        YEARS
                    -----------------------------------------------------------
   TIME STEP LENGTH 1.31524E+08 2.19206E+06  36534.      1522.3      4.1677    
 STRESS PERIOD TIME 1.43320E+09 2.38867E+07 3.98112E+05  16588.      45.415    
         TOTAL TIME 3.01108E+09 5.01847E+07 8.36412E+05  34850.      95.415    
1
 
 SOLVING FOR HEAD 
     4 ITERATIONS FOR TIME STEP  50 IN STRESS PERIOD    2

 MAXIMUM HEAD CHANGE FOR EACH ITERATION:

    HEAD CHANGE   HEAD CHANGE   HEAD CHANGE   HEAD CHANGE   HEAD CHANGE
  LAYER,ROW,COL LAYER,ROW,COL LAYER,ROW,COL LAYER,ROW,COL LAYER,ROW,COL
 ----------------------------------------------------------------------
     0.2598E-01    0.6972E-02    0.2634E-02    0.8620E-03
  (  1, 10, 10) (  1,  6,  1) (  1,  6,  1) (  1,  6,  1)


 OUTPUT CONTROL FOR STRESS PERIOD    2   TIME STEP  50
    PRINT BUDGET
    PRINT HEAD FOR ALL LAYERS
    SAVE BUDGET
 UBUDSV SAVING "              ET" ON UNIT 59 AT TIME STEP 50, STRESS PERIOD    2

  HEAD DEP BOUNDS   PERIOD    2   STEP  50
 BOUNDARY      1   LAYER   1   ROW    13   COL     1   RATE   -0.248320    
 BOUNDARY      2   LAYER   1   ROW    14   COL     9   RATE    0.215256    



   STREAM LEAKAGE   PERIOD    2   STEP  50

 LAYER ROW COL. STREAM  RCH.  FLOW INTO    FLOW TO  FLOW OUT OF  OVRLND.   DIRECT    STREAM    STREAM    STREAM    STREAM  STREAMBED  STREAMBED
                SEG.NO.  NO.  STRM. RCH.   AQUIFER   STRM. RCH.  RUNOFF    PRECIP      ET       HEAD      DEPTH     WIDTH  CONDCTNC.   GRADIENT

   1    1    1     1     1    2.500E+01   7.932E-01  2.421E+01  0.00E+00  0.00E+00  0.00E+00  1.09E+03  1.17E+00  1.30E+01  5.84E-01  4.53E-01
   1    2    2     1     2    2.421E+01   2.148E+00  2.206E+01  0.00E+00  0.00E+00  0.00E+00  1.09E+03  1.15E+00  1.27E+01  8.88E-01  8.07E-01
   1    3    3     1     3    2.206E+01   2.990E+00  1.907E+01  0.00E+00  0.00E+00  0.00E+00  1.08E+03  1.11E+00  1.21E+01  7.28E-01  1.37E+00
   1    3    4     1     4    1.907E+01   2.553E+00  1.652E+01  0.00E+00  0.00E+00  0.00E+00  1.08E+03  1.06E+00  1.13E+01  6.28E-01  1.35E+00
   1    4    5     2     1    6.515E+00   2.706E+00  3.810E+00  0.00E+00  0.00E+00  0.00E+00  1.07E+03  4.69E-01  1.20E+01  7.80E-01  1.16E+00
   1    5    6     2     2    3.810E+00   1.995E+00  1.814E+00  0.00E+00  0.00E+00  0.00E+00  1.07E+03  3.26E-01  1.20E+01  6.00E-01  1.11E+00
   1    6    6     2     3    1.814E+00   1.814E+00  0.000E+00  0.00E+00  0.00E+00  0.00E+00  1.06E+03  1.65E-01  1.20E+01  6.00E-01  1.03E+00
   1    7    6     2     4    0.000E+00   0.000E+00  0.000E+00  0.00E+00  0.00E+00  0.00E+00  1.06E+03  0.00E+00  1.20E+01  6.00E-01  1.00E+00
   1    8    6     2     5    0.000E+00   0.000E+00  0.000E+00  0.00E+00  0.00E+00  0.00E+00  1.05E+03  0.00E+00  1.20E+01  6.00E-01  1.00E+00
   1    3    5     3     1    1.000E+01   2.190E+00  7.810E+00  0.00E+00  0.00E+00  0.00E+00  1.08E+03  1.91E+00  9.64E+00  7.23E-01  1.52E+00
   1    3    6     3     2    7.810E+00   1.376E+00  6.433E+00  0.00E+00  0.00E+00  0.00E+00  1.07E+03  1.73E+00  8.91E+00  6.68E-01  1.03E+00
   1    3    7     3     3    6.433E+00   4.219E-01  6.011E+00  0.00E+00  0.00E+00  0.00E+00  1.07E+03  1.55E+00  8.22E+00  5.55E-01  3.80E-01
   1    4    8     3     4    6.011E+00   6.105E-01  5.401E+00  0.00E+00  0.00E+00  0.00E+00  1.07E+03  1.36E+00  7.45E+00  6.71E-01  4.55E-01
   1    5    8     3     5    5.401E+00   8.029E-01  4.598E+00  0.00E+00  0.00E+00  0.00E+00  1.06E+03  1.16E+00  6.65E+00  4.99E-01  8.04E-01
   1    6    8     3     6    4.598E+00   4.589E-01  4.139E+00  0.00E+00  0.00E+00  0.00E+00  1.06E+03  1.04E+00  6.15E+00  1.84E-01  1.24E+00
   1    5   10     4     1    1.000E+01   9.052E-01  9.095E+00  0.00E+00  0.00E+00  0.00E+00  1.08E+03  6.21E-01  1.00E+01  2.50E-01  1.21E+00
   1    5    9     4     2    9.095E+00   1.784E+00  7.311E+00  0.00E+00  0.00E+00  0.00E+00  1.07E+03  5.67E-01  1.00E+01  5.00E-01  1.19E+00
   1    6    8     4     3    7.311E+00   1.226E+00  6.086E+00  0.00E+00  0.00E+00  0.00E+00  1.06E+03  5.02E-01  1.00E+01  3.50E-01  1.17E+00
   1    6    8     5     1    1.022E+01  -2.550E-01  1.048E+01  0.00E+00  0.00E+00  0.00E+00  1.06E+03  6.80E-01  1.54E+01  6.18E-01 -1.38E-01
   1    7    7     5     2    1.048E+01   7.426E-01  9.737E+00  0.00E+00  0.00E+00  0.00E+00  1.05E+03  6.74E-01  1.52E+01  7.61E-01  3.25E-01
   1    8    7     5     3    9.737E+00   1.044E+00  8.693E+00  0.00E+00  0.00E+00  0.00E+00  1.05E+03  6.53E-01  1.44E+01  5.04E-01  6.90E-01
   1    8    6     5     4    8.693E+00   1.503E-01  8.543E+00  0.00E+00  0.00E+00  0.00E+00  1.05E+03  6.38E-01  1.38E+01  3.46E-01  1.45E-01
   1    9    6     6     1    8.543E+00   1.374E+00  7.169E+00  0.00E+00  0.00E+00  0.00E+00  1.04E+03  6.10E-01  1.20E+01  6.00E-01  7.63E-01
   1   10    7     6     2    7.169E+00   1.330E+00  5.839E+00  0.00E+00  0.00E+00  0.00E+00  1.04E+03  5.44E-01  1.20E+01  6.00E-01  7.39E-01
   1   11    7     6     3    5.839E+00   1.216E+00  4.623E+00  0.00E+00  0.00E+00  0.00E+00  1.03E+03  4.78E-01  1.20E+01  6.00E-01  6.75E-01
   1   12    7     6     4    4.623E+00   5.687E-01  4.054E+00  0.00E+00  0.00E+00  0.00E+00  1.03E+03  4.27E-01  1.20E+01  6.00E-01  3.16E-01
   1   13    7     6     5    4.054E+00  -6.611E-01  4.715E+00  0.00E+00  0.00E+00  0.00E+00  1.03E+03  4.30E-01  1.20E+01  2.40E-01 -9.18E-01
   1   14    9     7     1    1.500E+02   2.956E+00  1.470E+02  0.00E+00  0.00E+00  0.00E+00  1.04E+03  2.28E+00  5.53E+01  5.59E+00  1.76E-01
   1   13    8     7     2    1.470E+02   4.054E+00  1.430E+02  0.00E+00  0.00E+00  0.00E+00  1.03E+03  2.26E+00  5.52E+01  6.14E+00  2.20E-01
   1   13    7     7     3    1.430E+02   3.182E+00  1.398E+02  0.00E+00  0.00E+00  0.00E+00  1.03E+03  2.25E+00  5.51E+01  5.57E+00  1.90E-01
   1   13    6     8     1    1.445E+02   1.568E+00  1.430E+02  0.00E+00  0.00E+00  0.00E+00  1.02E+03  2.77E+00  4.02E+01  4.10E+00  1.28E-01
   1   13    5     8     2    1.430E+02  -1.254E+00  1.442E+02  0.00E+00  0.00E+00  0.00E+00  1.02E+03  2.77E+00  4.02E+01  4.09E+00 -1.02E-01
   1   13    4     8     3    1.442E+02  -2.966E+00  1.472E+02  0.00E+00  0.00E+00  0.00E+00  1.01E+03  2.79E+00  4.04E+01  4.12E+00 -2.40E-01
   1   13    3     8     4    1.472E+02  -3.050E+00  1.502E+02  0.00E+00  0.00E+00  0.00E+00  1.01E+03  2.81E+00  4.07E+01  4.15E+00 -2.45E-01
   1   13    2     8     5    1.502E+02  -1.112E+00  1.513E+02  0.00E+00  0.00E+00  0.00E+00  1.00E+03  2.82E+00  4.09E+01  4.17E+00 -8.89E-02
   1   13    1     8     6    1.513E+02   4.133E-01  1.509E+02  0.00E+00  0.00E+00  0.00E+00  9.95E+02  2.82E+00  4.10E+01  2.50E+00  5.50E-02



1
              HEAD IN LAYER   1 AT END OF TIME STEP  50 IN STRESS PERIOD    2
  ---------------------------------------------------------------------------

           1       2       3       4       5       6       7       8       9      10
 ...................................................................................
   1  1092.86 1089.46 6999.00 6999.00 6999.00 6999.00 6999.00 6999.00 6999.00 6999.00
   2  1089.90 1086.79 1081.56 6999.00 6999.00 1071.52 1070.80 1070.42 6999.00 6999.00
   3  6999.00 1079.49 1077.67 1073.69 1072.51 1070.58 1069.11 1068.36 6999.00 6999.00
   4  1068.75 1070.60 1070.27 1067.09 1065.47 1063.62 1063.86 1065.91 1065.93 6999.00
   5  1064.73 1063.94 1062.96 1061.51 1060.82 1060.76 1060.21 1062.01 1065.65 1068.08
   6  1059.83 1058.39 1057.22 1056.43 1056.29 1056.90 1057.20 1059.09 1061.90 1065.54
   7  1056.24 1053.11 1051.78 1051.21 1051.27 1051.86 1053.20 1055.46 1056.47 6999.00
   8  6999.00 1046.37 1045.77 1045.55 1045.76 1046.45 1047.83 1049.85 1050.39 6999.00
   9  6999.00 1039.09 1039.15 1039.49 1040.04 1041.05 1041.64 1042.86 1044.04 6999.00
  10  6999.00 1031.10 1031.79 1033.26 1034.32 1035.44 1036.51 1037.62 1039.31 1041.56
  11  6999.00 1021.44 1023.10 1026.84 1028.71 1030.49 1032.09 1033.56 1035.70 6999.00
  12  1001.17 1009.24 1014.52 1019.62 1023.14 1026.18 1028.57 1030.37 1034.29 6999.00
  13   994.53  999.96 1006.67 1012.88 1018.70 1024.26 1029.09 1034.10 1036.13 6999.00
  14  6999.00 1004.01 1008.96 1013.70 1018.89 1024.03 1029.48 1035.09 1039.34 6999.00
  15  6999.00 6999.00 1011.92 1015.10 1019.13 1022.39 6999.00 6999.00 6999.00 6999.00
1
  VOLUMETRIC BUDGET FOR ENTIRE MODEL AT END OF TIME STEP 50 IN STRESS PERIOD   2
  ------------------------------------------------------------------------------

     CUMULATIVE VOLUMES      L**3       RATES FOR THIS TIME STEP      L**3/T
     ------------------                 ------------------------

           IN:                                      IN:
           ---                                      ---
             STORAGE = 30236434400.0000               STORAGE =       7.1054E-15
       CONSTANT HEAD =           0.0000         CONSTANT HEAD =           0.0000
               WELLS =           0.0000                 WELLS =           0.0000
                  ET =           0.0000                    ET =           0.0000
     HEAD DEP BOUNDS =   684532160.0000       HEAD DEP BOUNDS =           0.2153
            RECHARGE =  5660643330.0000              RECHARGE =           1.7937
      STREAM LEAKAGE =231761854000.0000        STREAM LEAKAGE =          43.3746

            TOTAL IN =268343460000.0000              TOTAL IN =          45.3836

          OUT:                                     OUT:
          ----                                     ----
             STORAGE = 30234153000.0000               STORAGE =       8.2012E-03
       CONSTANT HEAD =           0.0000         CONSTANT HEAD =           0.0000
               WELLS =157787963000.0000                 WELLS =           0.0000
                  ET = 68366815200.0000                    ET =          35.8279
     HEAD DEP BOUNDS =   735929152.0000       HEAD DEP BOUNDS =           0.2483
            RECHARGE =           0.0000              RECHARGE =           0.0000
      STREAM LEAKAGE = 11218610200.0000        STREAM LEAKAGE =           9.2977

           TOTAL OUT =268343476000.0000             TOTAL OUT =          45.3821

            IN - OUT =       -6528.0000              IN - OUT =       1.4296E-03

 PERCENT DISCREPANCY =           0.00     PERCENT DISCREPANCY =           0.00






          TIME SUMMARY AT END OF TIME STEP  50 IN STRESS PERIOD    2
                    SECONDS     MINUTES      HOURS       DAYS        YEARS
                    -----------------------------------------------------------
   TIME STEP LENGTH 1.44676E+08 2.41127E+06  40188.      1674.5      4.5845    
 STRESS PERIOD TIME 1.57788E+09 2.62980E+07 4.38300E+05  18262.      50.000    
         TOTAL TIME 3.15576E+09 5.25960E+07 8.76600E+05  36525.      100.00    
1
