                                  MODFLOW-2000
      U.S. GEOLOGICAL SURVEY MODULAR FINITE-DIFFERENCE GROUND-WATER FLOW MODEL
                           VERSION 1.18.01 06/20/2008


 This model run combines GLOBAL and LIST output into this single file.

 GLOBAL LISTING FILE: tr2k_s3.lst
                         UNIT    2
#                                                                                                                                                                                                       
# Input files                                                                                                                                                                                           

 OPENING ../data/tr2k_s3.ba6
 FILE TYPE:BAS6   UNIT    1   STATUS:OLD    
 FORMAT:FORMATTED              ACCESS:SEQUENTIAL          

 OPENING ../data/tr2k_s3.dis
 FILE TYPE:DIS   UNIT   10   STATUS:OLD    
 FORMAT:FORMATTED              ACCESS:SEQUENTIAL          

 OPENING ../data/tr2k_s3.bc6
 FILE TYPE:BCF6   UNIT   11   STATUS:OLD    
 FORMAT:FORMATTED              ACCESS:SEQUENTIAL          

 OPENING ../data/tr2k_s3.wel
 FILE TYPE:WEL   UNIT   12   STATUS:OLD    
 FORMAT:FORMATTED              ACCESS:SEQUENTIAL          

 OPENING ../data/tr2k_s3.sip
 FILE TYPE:SIP   UNIT   13   STATUS:OLD    
 FORMAT:FORMATTED              ACCESS:SEQUENTIAL          

 OPENING ../data/tr2k_s3.oc
 FILE TYPE:OC   UNIT   15   STATUS:OLD    
 FORMAT:FORMATTED              ACCESS:SEQUENTIAL          

 OPENING ../data/tr2k_s3.sub
 FILE TYPE:SUB   UNIT   19   STATUS:OLD    
 FORMAT:FORMATTED              ACCESS:SEQUENTIAL          
#                                                                                                                                                                                                       
# Binary output files                                                                                                                                                                                   

 OPENING tr2k_s3.hed
 FILE TYPE:DATA(BINARY)   UNIT   21   STATUS:REPLACE
 FORMAT:BINARY                 ACCESS:SEQUENTIAL          

 OPENING tr2k_s3.ddn
 FILE TYPE:DATA(BINARY)   UNIT   22   STATUS:REPLACE
 FORMAT:BINARY                 ACCESS:SEQUENTIAL          

 OPENING tr2k_s3.sbs
 FILE TYPE:DATA(BINARY)   UNIT   41   STATUS:REPLACE
 FORMAT:BINARY                 ACCESS:SEQUENTIAL          

 OPENING tr2k_s3.cmp
 FILE TYPE:DATA(BINARY)   UNIT   42   STATUS:REPLACE
 FORMAT:BINARY                 ACCESS:SEQUENTIAL          


 DISCRETIZATION INPUT DATA READ FROM UNIT   10
    3 LAYERS        10 ROWS        10 COLUMNS
   31 STRESS PERIOD(S) IN SIMULATION
 MODEL TIME UNIT IS DAYS
 MODEL LENGTH UNIT IS UNDEFINED
 THE GROUND-WATER TRANSPORT PROCESS IS INACTIVE

 THE OBSERVATION PROCESS IS INACTIVE
 THE SENSITIVITY PROCESS IS INACTIVE
 THE PARAMETER-ESTIMATION PROCESS IS INACTIVE

 MODE: FORWARD

  Confining bed flag for each layer:
   0   0   0

       2720  ELEMENTS OF GX ARRAY USED OUT OF       2720
        300  ELEMENTS OF GZ ARRAY USED OUT OF        300
        300  ELEMENTS OF IG ARRAY USED OUT OF        300

                     DELR =   1000.00    

                     DELC =   2000.00    

 TOP ELEVATION OF LAYER 1 =   0.00000    

   MODEL LAYER BOTTOM EL. =  -100.000     FOR LAYER   1

   MODEL LAYER BOTTOM EL. =  -150.000     FOR LAYER   2

   MODEL LAYER BOTTOM EL. =  -250.000     FOR LAYER   3


 STRESS PERIOD     LENGTH       TIME STEPS     MULTIPLIER FOR DELT    SS FLAG
 ----------------------------------------------------------------------------
        1         1.000000          1                    1.000         SS
        2         365.3000          6                    1.300         TR
        3         365.3000          6                    1.300         TR
        4         365.3000          6                    1.300         TR
        5         365.3000          6                    1.300         TR
        6         365.3000          6                    1.300         TR
        7         365.3000          6                    1.300         TR
        8         365.3000          6                    1.300         TR
        9         365.3000          6                    1.300         TR
       10         365.3000          6                    1.300         TR
       11         365.3000          6                    1.300         TR
       12         365.3000          6                    1.300         TR
       13         365.3000          6                    1.300         TR
       14         365.3000          6                    1.300         TR
       15         365.3000          6                    1.300         TR
       16         365.3000          6                    1.300         TR
       17         365.3000          6                    1.300         TR
       18         365.3000          6                    1.300         TR
       19         365.3000          6                    1.300         TR
       20         365.3000          6                    1.300         TR
       21         365.3000          6                    1.300         TR
       22         365.3000          6                    1.300         TR
       23         365.3000          6                    1.300         TR
       24         365.3000          6                    1.300         TR
       25         365.3000          6                    1.300         TR
       26         365.3000          6                    1.300         TR
       27         365.3000          6                    1.300         TR
       28         365.3000          6                    1.300         TR
       29         365.3000          6                    1.300         TR
       30         365.3000          6                    1.300         TR
       31         365.3000          6                    1.300         TR

 COMBINED STEADY-STATE AND TRANSIENT SIMULATION




 SIP5 -- STRONGLY IMPLICIT PROCEDURE SOLUTION PACKAGE
                    VERSION 5, 9/1/93 INPUT READ FROM UNIT   13
 MAXIMUM OF 120 ITERATIONS ALLOWED FOR CLOSURE
  5 ITERATION PARAMETERS
       1325 ELEMENTS IN X ARRAY ARE USED BY SIP
        360 ELEMENTS IN IX ARRAY ARE USED BY SIP

       1325  ELEMENTS OF X ARRAY USED OUT OF       1325
          0  ELEMENTS OF Z ARRAY USED OUT OF          1
        360  ELEMENTS OF IX ARRAY USED OUT OF        360
          0  ELEMENTS OF XHS ARRAY USED OUT OF          1



          SOLUTION BY THE STRONGLY IMPLICIT PROCEDURE
          -------------------------------------------
 MAXIMUM ITERATIONS ALLOWED FOR CLOSURE =      120
                 ACCELERATION PARAMETER =     1.0000    
      HEAD CHANGE CRITERION FOR CLOSURE =    0.10000E-03
      SIP HEAD CHANGE PRINTOUT INTERVAL =        5

     CALCULATE ITERATION PARAMETERS FROM MODEL CALCULATED WSEED
 
 #Sample Problem 3                                                               
 #SUB1 documentation                                                             
    3 LAYERS        10 ROWS        10 COLUMNS
   31 STRESS PERIOD(S) IN SIMULATION

 BAS6 -- BASIC PACKAGE, VERSION 6, 1/11/2000 INPUT READ FROM UNIT    1
         15 ELEMENTS IN IR ARRAY ARE USED BY BAS

 BCF6 -- BLOCK-CENTERED FLOW PACKAGE, VERSION 6, 1/11/2000
         INPUT READ FROM UNIT 11
 TRANSIENT SIMULATION
 HEAD AT CELLS THAT CONVERT TO DRY=   0.0000    
 WETTING CAPABILITY IS NOT ACTIVE
      LAYER  LAYER-TYPE CODE     INTERBLOCK T
      --------------------------------------------
         1            1          0 -- HARMONIC    
         2            0          0 -- HARMONIC    
         3            0          0 -- HARMONIC    
        403 ELEMENTS IN RX ARRAY ARE USED BY BCF

 WEL6 -- WELL PACKAGE, VERSION 6, 1/11/2000 INPUT READ FROM UNIT   12
 No named parameters
 MAXIMUM OF     14 ACTIVE WELLS AT ONE TIME
         56 ELEMENTS IN RX ARRAY ARE USED BY WEL

SUB1 -- SUBSIDENCE PACKAGE, VERSION 1, 06/21/88 INPUT READ FROM UNIT 19

         NUMBER OF SYSTEMS OF NO-DELAYED INTERBEDS:  3
              NUMBER OF SYSTEMS OF DELAY INTERBEDS:  2
                          NUMBER OF MATERIAL ZONES:  1
                    NUMBER OF NODES IN EACH STRING: 20
 RESTART INFORMATION WILL NOT BE SAVED FOR DELAY INTERBEDS
 RESTART INFORMATION WILL NOT BE READ FOR DELAY INTERBEDS
    1 OUTPUT CONTROL RECORDS FOR SUB PACKAGE WILL BE READ.

 MODEL LAYER ASSIGNMENTS FOR EACH OF  3 NO-DELAY SYSTEMS OF INTERBEDS:
    1   2   3

 MODEL LAYER ASSIGNMENTS FOR EACH OF  2 DELAY SYSTEMS OF INTERBEDS:
    1   3

  SYSTEM   1 OF DELAY BEDS:

 NUMBER OF BEDS IN SYSTEM =   7.63500     FOR LAYER   1

  SYSTEM   2 OF DELAY BEDS:

 NUMBER OF BEDS IN SYSTEM =   17.7180     FOR LAYER   3

        459  ELEMENTS OF RX ARRAY USED OUT OF        459
          0  ELEMENTS OF RZ ARRAY USED OUT OF          1
         15  ELEMENTS OF IR ARRAY USED OUT OF         15
1
 #Sample Problem 3                                                               
 #SUB1 documentation                                                             



                     BOUNDARY ARRAY FOR LAYER   1
 READING ON UNIT    1 WITH FORMAT: (20I4)              

        1   2   3   4   5   6   7   8   9  10
 ............................................
   1    3   3   1   1   1   1   1   1   3   3
   2    3   2   2   2   2   2   2   2   2   3
   3    3   2   2   2   2   5   5   2   2   3
   4    3   2   2   2   2   5   5   2   2   3
   5    1   2   2   2   2   2   2   2   2   1
   6    1   2   2   2   2   2   2   2   2   1
   7    1   2   2   2   2   2   2   2   2   1
   8    1   2   2   2   2   2   2   2   2   1
   9    1   2   2   2   2   2   2   2   2   1
  10    1   1   1  -4  -4  -4  -4   1   1   1

           BOUNDARY ARRAY =              1 FOR LAYER   2

           BOUNDARY ARRAY =              1 FOR LAYER   3

 AQUIFER HEAD WILL BE SET TO  999.00     AT ALL NO-FLOW NODES (IBOUND=0).

             INITIAL HEAD =   0.00000     FOR LAYER   1

             INITIAL HEAD =   0.00000     FOR LAYER   2

             INITIAL HEAD =   0.00000     FOR LAYER   3

 OUTPUT CONTROL IS SPECIFIED ONLY AT TIME STEPS FOR WHICH OUTPUT IS DESIRED
 IBOUND WILL BE SAVED ON UNIT   50
 HEAD PRINT FORMAT CODE IS   4    DRAWDOWN PRINT FORMAT CODE IS   5
 HEADS WILL BE SAVED ON UNIT   21    DRAWDOWNS WILL BE SAVED ON UNIT   22

 COLUMN TO ROW ANISOTROPY =   1.00000    

     PRIMARY STORAGE COEF =  0.100000     FOR LAYER   1

    HYD. COND. ALONG ROWS =   20.0000     FOR LAYER   1

 VERT HYD COND /THICKNESS =  3.000000E-06 FOR LAYER   1

     PRIMARY STORAGE COEF =  6.560000E-05 FOR LAYER   2



               TRANSMIS. ALONG ROWS FOR LAYER   2
 READING ON UNIT   11 WITH FORMAT: (10F7.0)            

            1           2           3           4           5           6           7           8           9          10
 ........................................................................................................................
   1    1000.       1000.       1000.       1000.       1000.       1000.       1000.       1000.       1000.       1000.    
   2    1000.      0.5000      0.5000      0.5000      0.5000      0.5000      0.5000      0.5000      0.5000       1000.    
   3    1000.      0.5000      0.5000      0.5000      0.5000      0.5000      0.5000      0.5000      0.5000       1000.    
   4    1000.      0.5000      0.5000      0.5000      0.5000      0.5000      0.5000      0.5000      0.5000       1000.    
   5    1000.      0.5000      0.5000      0.5000      0.5000      0.5000      0.5000      0.5000      0.5000       1000.    
   6    1000.      0.5000      0.5000      0.5000      0.5000      0.5000      0.5000      0.5000      0.5000       1000.    
   7    1000.      0.5000      0.5000      0.5000      0.5000      0.5000      0.5000      0.5000      0.5000       1000.    
   8    1000.      0.5000      0.5000      0.5000      0.5000      0.5000      0.5000      0.5000      0.5000       1000.    
   9    1000.      0.5000      0.5000      0.5000      0.5000      0.5000      0.5000      0.5000      0.5000       1000.    
  10    1000.       1000.       1000.       1000.       1000.       1000.       1000.       1000.       1000.       1000.    

 VERT HYD COND /THICKNESS =  3.000000E-06 FOR LAYER   2

     PRIMARY STORAGE COEF =  2.620000E-04 FOR LAYER   3

     TRANSMIS. ALONG ROWS =   1000.00     FOR LAYER   3


     0 Well parameters

  SYSTEM   1 OF NO-DELAY BEDS:

    PRECONSOLIDATION HEAD =  -7.00000     FOR LAYER   1

  SYSTEM   1 OF NO-DELAY BEDS:

 ELASTIC INTERBED STORAGE =  2.100000E-04 FOR LAYER   1

  SYSTEM   1 OF NO-DELAY BEDS:

  VIRGIN INTERBED STORAGE =  9.120000E-03 FOR LAYER   1

  SYSTEM   1 OF NO-DELAY BEDS:

      STARTING COMPACTION =   0.00000     FOR LAYER   1

  SYSTEM   2 OF NO-DELAY BEDS:

    PRECONSOLIDATION HEAD =  -7.00000     FOR LAYER   2

  SYSTEM   2 OF NO-DELAY BEDS:

 ELASTIC INTERBED STORAGE =  1.500000E-04 FOR LAYER   2

  SYSTEM   2 OF NO-DELAY BEDS:



            VIRGIN INTERBED STORAGE FOR LAYER   2
 READING ON UNIT   19 WITH FORMAT: (10F7.0)            

            1           2           3           4           5           6           7           8           9          10
 ........................................................................................................................
   1   7.6000E-03  7.6000E-03  7.6000E-03  7.6000E-03  7.6000E-03  7.6000E-03  7.6000E-03  7.6000E-03  7.6000E-03  7.6000E-03
   2   7.6000E-03  1.5000E-02  1.5000E-02  1.5000E-02  1.5000E-02  1.5000E-02  1.5000E-02  1.5000E-02  1.5000E-02  7.6000E-03
   3   7.6000E-03  1.5000E-02  1.5000E-02  1.5000E-02  1.5000E-02  1.5000E-02  1.5000E-02  1.5000E-02  1.5000E-02  7.6000E-03
   4   7.6000E-03  1.5000E-02  1.5000E-02  1.5000E-02  1.5000E-02  1.5000E-02  1.5000E-02  1.5000E-02  1.5000E-02  7.6000E-03
   5   7.6000E-03  1.5000E-02  1.5000E-02  1.5000E-02  1.5000E-02  1.5000E-02  1.5000E-02  1.5000E-02  1.5000E-02  7.6000E-03
   6   7.6000E-03  1.5000E-02  1.5000E-02  1.5000E-02  1.5000E-02  1.5000E-02  1.5000E-02  1.5000E-02  1.5000E-02  7.6000E-03
   7   7.6000E-03  1.5000E-02  1.5000E-02  1.5000E-02  1.5000E-02  1.5000E-02  1.5000E-02  1.5000E-02  1.5000E-02  7.6000E-03
   8   7.6000E-03  1.5000E-02  1.5000E-02  1.5000E-02  1.5000E-02  1.5000E-02  1.5000E-02  1.5000E-02  1.5000E-02  7.6000E-03
   9   7.6000E-03  1.5000E-02  1.5000E-02  1.5000E-02  1.5000E-02  1.5000E-02  1.5000E-02  1.5000E-02  1.5000E-02  7.6000E-03
  10   7.6000E-03  7.6000E-03  7.6000E-03  7.6000E-03  7.6000E-03  7.6000E-03  7.6000E-03  7.6000E-03  7.6000E-03  7.6000E-03

  SYSTEM   2 OF NO-DELAY BEDS:

      STARTING COMPACTION =   0.00000     FOR LAYER   2

  SYSTEM   3 OF NO-DELAY BEDS:

    PRECONSOLIDATION HEAD =  -7.00000     FOR LAYER   3

  SYSTEM   3 OF NO-DELAY BEDS:

 ELASTIC INTERBED STORAGE =  4.200000E-04 FOR LAYER   3

  SYSTEM   3 OF NO-DELAY BEDS:

  VIRGIN INTERBED STORAGE =  1.824000E-02 FOR LAYER   3

  SYSTEM   3 OF NO-DELAY BEDS:

      STARTING COMPACTION =   0.00000     FOR LAYER   3

 MATERIAL PROPERTIES OF INTERBEDS WITH DELAY PROPERTIES

   ZONE        HYDRAULIC           ELASTIC            INELASTIC       
  NUMBER      CONDUCTIVITY     SPECIFIC STORAGE    SPECIFIC STORAGE   
 ---------------------------------------------------------------------
    1        0.10000E-05         0.60000E-05         0.60000E-03

  SYSTEM   1 OF DELAY BEDS:



                DELAY STARTING HEAD FOR LAYER   1
 READING ON UNIT   19 WITH FORMAT: (10F7.0)            

            1           2           3           4           5           6           7           8           9          10
 ........................................................................................................................
   1    22.66       22.31       21.66       21.25       21.05       21.05       21.25       21.66       22.31       22.66    
   2    21.62       21.13       20.71       20.42       20.27       20.27       20.42       20.71       21.13       21.62    
   3    20.11       19.63       19.27       19.03       18.91       18.91       19.03       19.27       19.63       20.11    
   4    18.05       17.62       17.33       17.14       17.05       17.05       17.14       17.33       17.62       18.05    
   5    15.12       15.03       14.93       14.85       14.81       14.81       14.85       14.93       15.03       15.12    
   6    12.47       12.44       12.40       12.37       12.35       12.35       12.37       12.40       12.44       12.47    
   7    9.870       9.845       9.805       9.766       9.742       9.742       9.766       9.805       9.845       9.870    
   8    7.297       7.235       7.133       7.029       6.970       6.970       7.029       7.133       7.235       7.297    
   9    4.891       4.709       4.383       4.017       3.864       3.864       4.017       4.383       4.709       4.891    
  10    3.135       2.680       1.696       0.000       0.000       0.000       0.000       1.696       2.680       3.135    

  SYSTEM   1 OF DELAY BEDS:

    DELAY PRECOLSOL. HEAD =  -7.00000     FOR LAYER   1

  SYSTEM   1 OF DELAY BEDS:

 DELAY INITIAL COMPACTION =   0.00000     FOR LAYER   1

  SYSTEM   1 OF DELAY BEDS:

 DELAY INTERBED THICKNESS =   5.89400     FOR LAYER   1

  SYSTEM   1 OF DELAY BEDS:

    MATERIAL ZONE INDICES =              1 FOR LAYER   1

  SYSTEM   2 OF DELAY BEDS:



                DELAY STARTING HEAD FOR LAYER   3
 READING ON UNIT   19 WITH FORMAT: (10F7.0)            

            1           2           3           4           5           6           7           8           9          10
 ........................................................................................................................
   1    13.29       13.30       13.30       13.30       13.30       13.30       13.30       13.30       13.30       13.29    
   2    13.27       13.27       13.28       13.28       13.28       13.28       13.28       13.28       13.27       13.27    
   3    13.21       13.22       13.22       13.22       13.22       13.22       13.22       13.22       13.22       13.21    
   4    13.13       13.13       13.13       13.14       13.14       13.14       13.14       13.13       13.13       13.13    
   5    13.02       13.03       13.03       13.03       13.03       13.03       13.03       13.03       13.03       13.02    
   6    12.91       12.91       12.91       12.91       12.91       12.91       12.91       12.91       12.91       12.91    
   7    12.80       12.80       12.80       12.80       12.80       12.80       12.80       12.80       12.80       12.80    
   8    12.71       12.70       12.70       12.70       12.70       12.70       12.70       12.70       12.70       12.71    
   9    12.64       12.64       12.63       12.63       12.63       12.63       12.63       12.63       12.64       12.64    
  10    12.61       12.61       12.61       12.61       12.60       12.60       12.61       12.61       12.61       12.61    

  SYSTEM   2 OF DELAY BEDS:

    DELAY PRECOLSOL. HEAD =  -7.00000     FOR LAYER   3

  SYSTEM   2 OF DELAY BEDS:

 DELAY INITIAL COMPACTION =   0.00000     FOR LAYER   3

  SYSTEM   2 OF DELAY BEDS:

 DELAY INTERBED THICKNESS =   5.08000     FOR LAYER   3

  SYSTEM   2 OF DELAY BEDS:

    MATERIAL ZONE INDICES =              1 FOR LAYER   3

             SUBSIDENCE PRINT FORMAT IS NUMBER   0
                 UNIT FOR SAVING SUBSIDENCE IS  41
    COMPACTION BY LAYER PRINT FORMAT IS NUMBER   0
        UNIT FOR SAVING COMPACTION BY LAYER IS  42
   COMPACTION BY SYSTEM PRINT FORMAT IS NUMBER   0
       UNIT FOR SAVING COMPACTION BY SYSTEM IS  42
  VERTICAL DISPLACEMENT PRINT FORMAT IS NUMBER   0
      UNIT FOR SAVING VERTICAL DISPLACEMENT IS  41
 NO-DELAY CRITICAL HEAD PRINT FORMAT IS NUMBER   0
     UNIT FOR SAVING NO-DELAY CRITICAL HEAD IS  43
    DELAY CRITICAL HEAD PRINT FORMAT IS NUMBER   0
        UNIT FOR SAVING DELAY CRITICAL HEAD IS  43
1
                            STRESS PERIOD NO.    1, LENGTH =   1.000000    
                            -----------------------------------------------

                              NUMBER OF TIME STEPS =     1

                               MULTIPLIER FOR DELT =     1.000

                            INITIAL TIME STEP SIZE =   1.000000    

 WELL NO.  LAYER   ROW   COL   STRESS RATE         
 --------------------------------------------------
      1      1      1      1       3000.    
      2      1      1      2       3000.    
      3      1      1      9       3000.    
      4      1      1     10       3000.    
      5      1      2      1       3000.    
      6      1      2     10       3000.    
      7      1      3      1       3000.    
      8      1      3     10       3000.    
      9      1      4      1       3000.    
     10      1      4     10       3000.    

     10 WELLS
 
 SOLVING FOR HEAD 

 AVERAGE SEED = 0.00104234
 MINIMUM SEED = 0.00001229

     5 ITERATION PARAMETERS CALCULATED FROM AVERAGE SEED:

  0.000000E+00 0.820319E+00 0.967715E+00 0.994199E+00 0.998958E+00

    46 ITERATIONS FOR TIME STEP   1 IN STRESS PERIOD    1

 MAXIMUM HEAD CHANGE FOR EACH ITERATION:

    HEAD CHANGE   HEAD CHANGE   HEAD CHANGE   HEAD CHANGE   HEAD CHANGE
  LAYER,ROW,COL LAYER,ROW,COL LAYER,ROW,COL LAYER,ROW,COL LAYER,ROW,COL
 ----------------------------------------------------------------------
      2.671         2.508         5.470         11.54         8.275    
  (  1,  1, 10) (  1,  1, 10) (  1,  1,  1) (  1,  1, 10) (  3,  1,  1)
      2.524         1.287       -0.9950        -2.001        -1.404    
  (  2,  2,  9) (  2, 10,  2) (  1,  7,  3) (  1,  1,  1) (  1,  1,  1)
     0.6811        0.3993        0.2702        0.7622        0.9893    
  (  2,  6,  1) (  2,  1,  2) (  1,  1,  1) (  1,  1, 10) (  3,  1,  1)
    -0.1359        0.9522E-01   -0.7821E-01   -0.1634       -0.1033    
  (  2,  9,  7) (  2, 10,  2) (  1,  7,  3) (  1,  1,  1) (  1,  1,  1)
     0.5098E-01    0.3160E-01    0.2107E-01    0.5952E-01    0.9494E-01
  (  2,  9,  6) (  2,  1,  2) (  1,  1,  1) (  1,  1, 10) (  3,  1,  1)
    -0.1183E-01    0.7216E-02   -0.6377E-02   -0.1338E-01   -0.7857E-02
  (  2,  9,  7) (  2, 10,  2) (  1,  7,  3) (  1,  1,  1) (  1,  1,  1)
     0.4081E-02    0.2552E-02    0.1665E-02    0.4682E-02    0.8297E-02
  (  2,  9,  6) (  2,  1,  2) (  1,  1,  1) (  1,  1, 10) (  3,  1,  1)
    -0.9887E-03    0.5632E-03   -0.5117E-03   -0.1076E-02   -0.6005E-03
  (  2,  9,  7) (  2, 10,  2) (  1,  7,  3) (  1,  1,  1) (  1,  1,  1)
     0.3225E-03    0.2046E-03    0.1309E-03    0.3672E-03    0.6956E-03
  (  2,  9,  6) (  2,  1,  2) (  1,  1,  1) (  1,  1, 10) (  3,  1,  1)
    -0.8064E-04
  (  2,  9,  7)


 OUTPUT CONTROL FOR STRESS PERIOD    1   TIME STEP   1
    PRINT BUDGET
    PRINT HEAD FOR ALL LAYERS
    SAVE HEAD FOR ALL LAYERS
    SAVE DRAWDOWN FOR ALL LAYERS
1
              HEAD IN LAYER   1 AT END OF TIME STEP   1 IN STRESS PERIOD    1
  ---------------------------------------------------------------------------

           1       2       3       4       5       6       7       8       9      10
 ...................................................................................
   1    22.66   22.31   21.66   21.25   21.05   21.05   21.25   21.66   22.31   22.66
   2    21.62   21.13   20.71   20.42   20.27   20.27   20.42   20.71   21.13   21.62
   3    20.11   19.63   19.27   19.03   18.91   18.91   19.03   19.27   19.63   20.11
   4    18.05   17.62   17.33   17.14   17.05   17.05   17.14   17.33   17.62   18.05
   5    15.12   15.03   14.93   14.85   14.81   14.81   14.85   14.93   15.03   15.12
   6    12.47   12.44   12.40   12.37   12.35   12.35   12.37   12.40   12.44   12.47
   7     9.87    9.84    9.81    9.77    9.74    9.74    9.77    9.81    9.84    9.87
   8     7.30    7.24    7.13    7.03    6.97    6.97    7.03    7.13    7.24    7.30
   9     4.89    4.71    4.38    4.02    3.86    3.86    4.02    4.38    4.71    4.89
  10     3.14    2.68    1.70    0.00    0.00    0.00    0.00    1.70    2.68    3.14
1
              HEAD IN LAYER   2 AT END OF TIME STEP   1 IN STRESS PERIOD    1
  ---------------------------------------------------------------------------

           1       2       3       4       5       6       7       8       9      10
 ...................................................................................
   1    14.85   14.91   14.96   14.99   15.00   15.00   14.99   14.96   14.91   14.85
   2    14.53   16.75   16.88   16.77   16.70   16.70   16.77   16.88   16.75   14.53
   3    14.14   16.10   16.22   16.12   16.06   16.06   16.12   16.22   16.10   14.14
   4    13.67   15.13   15.21   15.14   15.09   15.09   15.14   15.21   15.13   13.67
   5    13.15   13.91   13.97   13.94   13.92   13.92   13.94   13.97   13.91   13.15
   6    12.61   12.67   12.66   12.64   12.63   12.63   12.64   12.66   12.67   12.61
   7    12.06   11.42   11.31   11.28   11.27   11.27   11.28   11.31   11.42   12.06
   8    11.54   10.18    9.93    9.87    9.84    9.84    9.87    9.93   10.18   11.54
   9    11.05    9.06    8.63    8.44    8.37    8.37    8.44    8.63    9.06   11.05
  10    10.63   10.55   10.47   10.42   10.40   10.40   10.42   10.47   10.55   10.63
1
              HEAD IN LAYER   3 AT END OF TIME STEP   1 IN STRESS PERIOD    1
  ---------------------------------------------------------------------------

           1       2       3       4       5       6       7       8       9      10
 ...................................................................................
   1    13.29   13.29   13.30   13.30   13.30   13.30   13.30   13.30   13.29   13.29
   2    13.27   13.27   13.28   13.28   13.28   13.28   13.28   13.28   13.27   13.27
   3    13.21   13.22   13.22   13.22   13.22   13.22   13.22   13.22   13.22   13.21
   4    13.13   13.13   13.13   13.14   13.14   13.14   13.14   13.13   13.13   13.13
   5    13.02   13.03   13.03   13.03   13.03   13.03   13.03   13.03   13.03   13.02
   6    12.91   12.91   12.91   12.91   12.91   12.91   12.91   12.91   12.91   12.91
   7    12.80   12.80   12.80   12.80   12.80   12.80   12.80   12.80   12.80   12.80
   8    12.71   12.70   12.70   12.70   12.70   12.70   12.70   12.70   12.70   12.71
   9    12.64   12.64   12.63   12.63   12.63   12.63   12.63   12.63   12.64   12.64
  10    12.61   12.61   12.61   12.61   12.61   12.61   12.61   12.61   12.61   12.61

 HEAD WILL BE SAVED ON UNIT   21 AT END OF TIME STEP   1, STRESS PERIOD    1

 DRAWDOWN WILL BE SAVED ON UNIT   22 AT END OF TIME STEP   1, STRESS PERIOD    1
1
  VOLUMETRIC BUDGET FOR ENTIRE MODEL AT END OF TIME STEP  1 IN STRESS PERIOD   1
  ------------------------------------------------------------------------------

     CUMULATIVE VOLUMES      L**3       RATES FOR THIS TIME STEP      L**3/T
     ------------------                 ------------------------

           IN:                                      IN:
           ---                                      ---
             STORAGE =           0.0000               STORAGE =           0.0000
       CONSTANT HEAD =           0.0000         CONSTANT HEAD =           0.0000
               WELLS =       30000.0000                 WELLS =       30000.0000
    INST. IB STORAGE =           0.0000      INST. IB STORAGE =           0.0000
    DELAY IB STORAGE =           0.0000      DELAY IB STORAGE =           0.0000

            TOTAL IN =       30000.0000              TOTAL IN =       30000.0000

          OUT:                                     OUT:
          ----                                     ----
             STORAGE =           0.0000               STORAGE =           0.0000
       CONSTANT HEAD =       30000.4180         CONSTANT HEAD =       30000.4180
               WELLS =           0.0000                 WELLS =           0.0000
    INST. IB STORAGE =           0.0000      INST. IB STORAGE =           0.0000
    DELAY IB STORAGE =           0.0000      DELAY IB STORAGE =           0.0000

           TOTAL OUT =       30000.4180             TOTAL OUT =       30000.4180

            IN - OUT =          -0.4180              IN - OUT =          -0.4180

 PERCENT DISCREPANCY =           0.00     PERCENT DISCREPANCY =           0.00






          TIME SUMMARY AT END OF TIME STEP   1 IN STRESS PERIOD    1
                    SECONDS     MINUTES      HOURS       DAYS        YEARS
                    -----------------------------------------------------------
   TIME STEP LENGTH  86400.      1440.0      24.000      1.0000     2.73785E-03
 STRESS PERIOD TIME  86400.      1440.0      24.000      1.0000     2.73785E-03
         TOTAL TIME  86400.      1440.0      24.000      1.0000     2.73785E-03
1
1
                            STRESS PERIOD NO.    2, LENGTH =   365.3000    
                            -----------------------------------------------

                              NUMBER OF TIME STEPS =     6

                               MULTIPLIER FOR DELT =     1.300

                            INITIAL TIME STEP SIZE =   28.63744    

 WELL NO.  LAYER   ROW   COL   STRESS RATE         
 --------------------------------------------------
      1      1      1      1       3000.    
      2      1      1      2       3000.    
      3      1      1      9       3000.    
      4      1      1     10       3000.    
      5      1      2      1       3000.    
      6      1      2     10       3000.    
      7      1      3      1       3000.    
      8      1      3     10       3000.    
      9      1      4      1       3000.    
     10      1      4     10       3000.    
     11      3      3      6     -0.1400E+05
     12      3      3      7      -8000.    
     13      3      4      6      -5000.    
     14      3      4      7      -3000.    

     14 WELLS
 
 SOLVING FOR HEAD 

    31 ITERATIONS FOR TIME STEP   1 IN STRESS PERIOD    2

 OUTPUT CONTROL FOR STRESS PERIOD    2   TIME STEP   1
    SAVE HEAD FOR ALL LAYERS

 HEAD WILL BE SAVED ON UNIT   21 AT END OF TIME STEP   1, STRESS PERIOD    2
 
 SOLVING FOR HEAD 
    27 ITERATIONS FOR TIME STEP   2 IN STRESS PERIOD    2

 OUTPUT CONTROL FOR STRESS PERIOD    2   TIME STEP   2
    SAVE HEAD FOR ALL LAYERS

 HEAD WILL BE SAVED ON UNIT   21 AT END OF TIME STEP   2, STRESS PERIOD    2
 
 SOLVING FOR HEAD 
    31 ITERATIONS FOR TIME STEP   3 IN STRESS PERIOD    2

 OUTPUT CONTROL FOR STRESS PERIOD    2   TIME STEP   3
    SAVE HEAD FOR ALL LAYERS

 HEAD WILL BE SAVED ON UNIT   21 AT END OF TIME STEP   3, STRESS PERIOD    2
 
 SOLVING FOR HEAD 
    31 ITERATIONS FOR TIME STEP   4 IN STRESS PERIOD    2

 OUTPUT CONTROL FOR STRESS PERIOD    2   TIME STEP   4
    SAVE HEAD FOR ALL LAYERS

 HEAD WILL BE SAVED ON UNIT   21 AT END OF TIME STEP   4, STRESS PERIOD    2
 
 SOLVING FOR HEAD 
    27 ITERATIONS FOR TIME STEP   5 IN STRESS PERIOD    2

 MAXIMUM HEAD CHANGE FOR EACH ITERATION:

    HEAD CHANGE   HEAD CHANGE   HEAD CHANGE   HEAD CHANGE   HEAD CHANGE
  LAYER,ROW,COL LAYER,ROW,COL LAYER,ROW,COL LAYER,ROW,COL LAYER,ROW,COL
 ----------------------------------------------------------------------
     -1.315       -0.9228        -2.124        -1.311        0.4587    
  (  3,  3,  7) (  3, 10,  1) (  3, 10, 10) (  3, 10,  1) (  2,  1, 10)
    -0.3840        0.7490E-01    0.1996        0.2427        0.4689E-01
  (  2,  1, 10) (  3, 10,  3) (  3, 10,  1) (  3, 10, 10) (  3, 10, 10)
     0.3495E-01    0.2453E-01    0.4557E-01    0.4693E-01    0.1987E-01
  (  2,  3,  1) (  2,  1,  2) (  3, 10, 10) (  3, 10,  1) (  3, 10,  1)
     0.8267E-02    0.2804E-02    0.4295E-02    0.7879E-02    0.1765E-02
  (  2,  2,  1) (  3,  1,  1) (  3, 10,  1) (  3, 10, 10) (  3, 10,  1)
    -0.5493E-03    0.5276E-03    0.1444E-02    0.1821E-02    0.8844E-03
  (  2,  9,  1) (  3,  4,  1) (  3, 10, 10) (  3, 10,  1) (  3,  9,  1)
     0.1926E-03   -0.7898E-04
  (  2,  2,  1) (  2, 10,  2)


 OUTPUT CONTROL FOR STRESS PERIOD    2   TIME STEP   5
    SAVE HEAD FOR ALL LAYERS

 HEAD WILL BE SAVED ON UNIT   21 AT END OF TIME STEP   5, STRESS PERIOD    2
 
 SOLVING FOR HEAD 
    27 ITERATIONS FOR TIME STEP   6 IN STRESS PERIOD    2

 MAXIMUM HEAD CHANGE FOR EACH ITERATION:

    HEAD CHANGE   HEAD CHANGE   HEAD CHANGE   HEAD CHANGE   HEAD CHANGE
  LAYER,ROW,COL LAYER,ROW,COL LAYER,ROW,COL LAYER,ROW,COL LAYER,ROW,COL
 ----------------------------------------------------------------------
    -0.8608       -0.6381        -1.434       -0.8190        0.3124    
  (  3,  3,  6) (  3, 10,  1) (  3, 10, 10) (  3, 10,  1) (  2,  1, 10)
    -0.2817        0.4180E-01    0.1185        0.1438        0.2476E-01
  (  2,  1, 10) (  3, 10, 10) (  3, 10,  1) (  3, 10, 10) (  3, 10, 10)
     0.2377E-01    0.1625E-01    0.2717E-01    0.2728E-01    0.9352E-02
  (  2,  3,  1) (  2,  1,  2) (  3, 10, 10) (  3, 10,  1) (  3, 10,  1)
     0.5756E-02    0.1471E-02    0.3906E-02    0.5263E-02    0.1075E-02
  (  2,  2,  1) (  3, 10, 10) (  3, 10,  1) (  3, 10, 10) (  3, 10, 10)
    -0.5061E-03    0.3896E-03    0.1089E-02    0.1189E-02    0.5436E-03
  (  2,  8,  1) (  3, 10,  1) (  3, 10,  6) (  3, 10,  1) (  3, 10,  1)
     0.2471E-03   -0.7204E-04
  (  2,  3,  1) (  2, 10,  2)


 OUTPUT CONTROL FOR STRESS PERIOD    2   TIME STEP   6
    PRINT BUDGET
    PRINT HEAD FOR ALL LAYERS
    SAVE HEAD FOR ALL LAYERS
    SAVE DRAWDOWN FOR ALL LAYERS
1
              HEAD IN LAYER   1 AT END OF TIME STEP   6 IN STRESS PERIOD    2
  ---------------------------------------------------------------------------

           1       2       3       4       5       6       7       8       9      10
 ...................................................................................
   1    22.58   22.23   21.58   21.16   20.96   20.96   21.16   21.58   22.23   22.58
   2    21.54   21.05   20.63   20.33   20.18   20.18   20.33   20.63   21.04   21.54
   3    20.03   19.55   19.18   18.94   18.82   18.82   18.94   19.18   19.54   20.03
   4    17.97   17.54   17.25   17.06   16.97   16.97   17.06   17.24   17.54   17.97
   5    15.04   14.96   14.85   14.77   14.73   14.73   14.77   14.85   14.95   15.04
   6    12.40   12.37   12.33   12.30   12.28   12.28   12.30   12.33   12.37   12.40
   7     9.81    9.78    9.74    9.70    9.68    9.68    9.70    9.74    9.78    9.80
   8     7.24    7.18    7.08    6.97    6.91    6.91    6.97    7.08    7.18    7.24
   9     4.84    4.66    4.34    3.97    3.82    3.82    3.97    4.34    4.66    4.84
  10     3.09    2.64    1.67    0.00    0.00    0.00    0.00    1.67    2.64    3.09
1
              HEAD IN LAYER   2 AT END OF TIME STEP   6 IN STRESS PERIOD    2
  ---------------------------------------------------------------------------

           1       2       3       4       5       6       7       8       9      10
 ...................................................................................
   1     5.13    5.18    5.21    5.22    5.22    5.22    5.20    5.17    5.14    5.08
   2     4.89    6.63    6.55    6.22    5.87    5.61    5.71    6.04    6.22    4.81
   3     4.58    5.93    5.69    5.08    4.12    2.71    3.15    4.45    5.17    4.48
   4     4.22    5.18    4.99    4.57    3.99    3.28    3.48    4.17    4.61    4.11
   5     3.81    4.31    4.25    4.08    3.90    3.77    3.79    3.93    4.02    3.71
   6     3.39    3.49    3.45    3.38    3.31    3.27    3.26    3.29    3.32    3.30
   7     2.96    2.64    2.56    2.51    2.47    2.45    2.45    2.47    2.54    2.89
   8     2.55    1.71    1.54    1.46    1.42    1.41    1.43    1.49    1.65    2.49
   9     2.16    0.78    0.45    0.26    0.18    0.18    0.25    0.42    0.75    2.12
  10     1.81    1.74    1.68    1.64    1.61    1.61    1.63    1.67    1.73    1.80
1
              HEAD IN LAYER   3 AT END OF TIME STEP   6 IN STRESS PERIOD    2
  ---------------------------------------------------------------------------

           1       2       3       4       5       6       7       8       9      10
 ...................................................................................
   1    -7.24   -7.31   -7.45   -7.64   -7.85   -8.00   -8.02   -7.94   -7.83   -7.76
   2    -7.36   -7.50   -7.79   -8.25   -8.83   -9.37   -9.31   -8.86   -8.45   -8.23
   3    -7.46   -7.70   -8.26   -9.31  -11.18  -14.49  -13.51  -10.83   -9.42   -8.81
   4    -7.25   -7.41   -7.79   -8.49   -9.59  -11.20  -10.81   -9.47   -8.65   -8.26
   5    -6.78   -6.87   -7.04   -7.29   -7.58   -7.84   -7.82   -7.63   -7.44   -7.33
   6    -6.13   -6.17   -6.25   -6.36   -6.47   -6.55   -6.57   -6.55   -6.50   -6.48
   7    -5.51   -5.53   -5.57   -5.61   -5.66   -5.69   -5.71   -5.72   -5.71   -5.71
   8    -5.00   -5.02   -5.03   -5.06   -5.08   -5.10   -5.11   -5.12   -5.12   -5.12
   9    -4.66   -4.66   -4.68   -4.69   -4.70   -4.71   -4.72   -4.73   -4.73   -4.73
  10    -4.48   -4.48   -4.49   -4.50   -4.50   -4.51   -4.52   -4.52   -4.53   -4.53

 HEAD WILL BE SAVED ON UNIT   21 AT END OF TIME STEP   6, STRESS PERIOD    2

 DRAWDOWN WILL BE SAVED ON UNIT   22 AT END OF TIME STEP   6, STRESS PERIOD    2
1
  VOLUMETRIC BUDGET FOR ENTIRE MODEL AT END OF TIME STEP  6 IN STRESS PERIOD   2
  ------------------------------------------------------------------------------

     CUMULATIVE VOLUMES      L**3       RATES FOR THIS TIME STEP      L**3/T
     ------------------                 ------------------------

           IN:                                      IN:
           ---                                      ---
             STORAGE =     2510505.0000               STORAGE =        5953.6846
       CONSTANT HEAD =           0.0000         CONSTANT HEAD =           0.0000
               WELLS =    10989000.0000                 WELLS =       30000.0000
    INST. IB STORAGE =     4623401.5000      INST. IB STORAGE =       12993.8125
    DELAY IB STORAGE =     3701662.0000      DELAY IB STORAGE =       10445.3789

            TOTAL IN =    21824568.0000              TOTAL IN =       59392.8750

          OUT:                                     OUT:
          ----                                     ----
             STORAGE =           0.0000               STORAGE =           0.0000
       CONSTANT HEAD =    10865471.0000         CONSTANT HEAD =       29392.6133
               WELLS =    10959000.0000                 WELLS =       30000.0000
    INST. IB STORAGE =           0.0000      INST. IB STORAGE =           0.0000
    DELAY IB STORAGE =           0.0000      DELAY IB STORAGE =           0.0000

           TOTAL OUT =    21824472.0000             TOTAL OUT =       59392.6133

            IN - OUT =          96.0000              IN - OUT =           0.2617

 PERCENT DISCREPANCY =           0.00     PERCENT DISCREPANCY =           0.00






          TIME SUMMARY AT END OF TIME STEP   6 IN STRESS PERIOD    2
                    SECONDS     MINUTES      HOURS       DAYS        YEARS
                    -----------------------------------------------------------
   TIME STEP LENGTH 9.18681E+06 1.53113E+05  2551.9      106.33     0.29111    
 STRESS PERIOD TIME 3.15619E+07 5.26032E+05  8767.2      365.30      1.0001    
         TOTAL TIME 3.16483E+07 5.27472E+05  8791.2      366.30      1.0029    
1

                               VOLUMETRIC BUDGET FOR SYSTEMS OF DELAY INTERBEDS
                                          AT END OF TIME STEP  6 IN STRESS PERIOD  2

          |   C U M U L A T I V E   V O L U M E S   L**3           | R A T E S   F O R  T H I S  T I M E  S T E P   L**3/T  |
   SYSTEM |    CHANGE IN     BOUNDARY                    PERCENT   |    CHANGE IN     BOUNDARY                    PERCENT   |
   NUMBER |     STORAGE        FLOW           SUM      DISCREPANCY |     STORAGE        FLOW           SUM      DISCREPANCY |
  --------|--------------------------------------------------------|--------------------------------------------------------|
      1     2925.0        -2925.0       -0.24414E-03   -0.83467E-05     11.729        -11.729       -0.28610E-05   -0.24392E-04
      2    0.36987E+07   -0.36987E+07     0.0000         0.0000         10434.        -10434.        0.97656E-03    0.93597E-05
  --------|--------------------------------------------------------|--------------------------------------------------------|
 TOTALS:    0.37017E+07   -0.37017E+07     0.0000         0.0000         10445.        -10445.        0.97656E-03    0.93492E-05
1
                            STRESS PERIOD NO.    3, LENGTH =   365.3000    
                            -----------------------------------------------

                              NUMBER OF TIME STEPS =     6

                               MULTIPLIER FOR DELT =     1.300

                            INITIAL TIME STEP SIZE =   28.63744    

 REUSING NON-PARAMETER WELLS FROM LAST STRESS PERIOD

     14 WELLS
 
 SOLVING FOR HEAD 

    31 ITERATIONS FOR TIME STEP   1 IN STRESS PERIOD    3

 OUTPUT CONTROL FOR STRESS PERIOD    3   TIME STEP   1
    SAVE HEAD FOR ALL LAYERS

 HEAD WILL BE SAVED ON UNIT   21 AT END OF TIME STEP   1, STRESS PERIOD    3
 
 SOLVING FOR HEAD 
    30 ITERATIONS FOR TIME STEP   2 IN STRESS PERIOD    3

 OUTPUT CONTROL FOR STRESS PERIOD    3   TIME STEP   2
    SAVE HEAD FOR ALL LAYERS

 HEAD WILL BE SAVED ON UNIT   21 AT END OF TIME STEP   2, STRESS PERIOD    3
 
 SOLVING FOR HEAD 
    30 ITERATIONS FOR TIME STEP   3 IN STRESS PERIOD    3

 OUTPUT CONTROL FOR STRESS PERIOD    3   TIME STEP   3
    SAVE HEAD FOR ALL LAYERS

 HEAD WILL BE SAVED ON UNIT   21 AT END OF TIME STEP   3, STRESS PERIOD    3
 
 SOLVING FOR HEAD 
    30 ITERATIONS FOR TIME STEP   4 IN STRESS PERIOD    3

 OUTPUT CONTROL FOR STRESS PERIOD    3   TIME STEP   4
    SAVE HEAD FOR ALL LAYERS

 HEAD WILL BE SAVED ON UNIT   21 AT END OF TIME STEP   4, STRESS PERIOD    3
 
 SOLVING FOR HEAD 
    29 ITERATIONS FOR TIME STEP   5 IN STRESS PERIOD    3

 MAXIMUM HEAD CHANGE FOR EACH ITERATION:

    HEAD CHANGE   HEAD CHANGE   HEAD CHANGE   HEAD CHANGE   HEAD CHANGE
  LAYER,ROW,COL LAYER,ROW,COL LAYER,ROW,COL LAYER,ROW,COL LAYER,ROW,COL
 ----------------------------------------------------------------------
     0.3012       -0.1726       -0.2323       -0.6921E-01   -0.7186E-01
  (  3,  3,  6) (  3,  3,  7) (  3,  3,  6) (  3,  2,  9) (  3,  3,  6)
    -0.4258E-01   -0.5038E-01   -0.3923E-01   -0.2435E-01   -0.1715E-01
  (  2,  6,  1) (  3,  3,  6) (  3,  3,  7) (  3,  3,  6) (  3,  3,  7)
    -0.9519E-02   -0.1135E-01   -0.8986E-02   -0.5686E-02   -0.4160E-02
  (  3,  3,  6) (  3,  3,  7) (  3,  3,  6) (  3,  3,  6) (  3,  3,  6)
    -0.2351E-02   -0.2705E-02   -0.2125E-02   -0.1433E-02   -0.1002E-02
  (  3,  3,  6) (  3,  3,  6) (  3,  3,  6) (  3,  3,  6) (  3,  3,  6)
    -0.6230E-03   -0.6625E-03   -0.5483E-03   -0.3592E-03   -0.2639E-03
  (  3,  3,  6) (  3,  3,  6) (  3,  3,  6) (  3,  3,  6) (  3,  3,  6)
    -0.1597E-03   -0.1322E-03   -0.1011E-03   -0.5203E-04
  (  3,  3,  6) (  3,  3,  6) (  3,  3,  6) (  3,  3,  6)


 OUTPUT CONTROL FOR STRESS PERIOD    3   TIME STEP   5
    SAVE HEAD FOR ALL LAYERS

 HEAD WILL BE SAVED ON UNIT   21 AT END OF TIME STEP   5, STRESS PERIOD    3
 
 SOLVING FOR HEAD 
    28 ITERATIONS FOR TIME STEP   6 IN STRESS PERIOD    3

 MAXIMUM HEAD CHANGE FOR EACH ITERATION:

    HEAD CHANGE   HEAD CHANGE   HEAD CHANGE   HEAD CHANGE   HEAD CHANGE
  LAYER,ROW,COL LAYER,ROW,COL LAYER,ROW,COL LAYER,ROW,COL LAYER,ROW,COL
 ----------------------------------------------------------------------
    -0.1990       -0.1991       -0.1404       -0.9010E-01   -0.5960E-01
  (  3,  1,  1) (  3,  3,  6) (  3, 10, 10) (  3,  3,  6) (  3,  3,  6)
    -0.4857E-01   -0.3958E-01   -0.3326E-01   -0.1924E-01   -0.1323E-01
  (  2,  6,  1) (  3,  3,  7) (  3,  3,  7) (  3,  3,  6) (  3,  3,  7)
    -0.6709E-02   -0.8592E-02   -0.7125E-02   -0.4354E-02   -0.3086E-02
  (  3,  3,  6) (  3,  3,  7) (  3,  3,  6) (  3,  3,  6) (  3,  3,  6)
    -0.1647E-02   -0.1994E-02   -0.1668E-02   -0.1076E-02   -0.7300E-03
  (  3,  3,  6) (  3,  3,  6) (  3,  3,  6) (  3,  3,  6) (  3,  3,  6)
    -0.4376E-03   -0.4801E-03   -0.4385E-03   -0.2763E-03   -0.1904E-03
  (  3,  3,  6) (  3,  3,  6) (  3,  3,  6) (  3,  3,  6) (  3,  3,  6)
    -0.1115E-03   -0.1002E-03   -0.6081E-04
  (  3,  3,  6) (  3,  3,  6) (  3,  3,  6)


 OUTPUT CONTROL FOR STRESS PERIOD    3   TIME STEP   6
    PRINT BUDGET
    PRINT HEAD FOR ALL LAYERS
    SAVE HEAD FOR ALL LAYERS
    SAVE DRAWDOWN FOR ALL LAYERS
1
              HEAD IN LAYER   1 AT END OF TIME STEP   6 IN STRESS PERIOD    3
  ---------------------------------------------------------------------------

           1       2       3       4       5       6       7       8       9      10
 ...................................................................................
   1    22.46   22.12   21.46   21.05   20.85   20.84   21.05   21.46   22.12   22.46
   2    21.43   20.93   20.51   20.22   20.07   20.07   20.21   20.51   20.93   21.42
   3    19.92   19.43   19.07   18.82   18.70   18.70   18.82   19.06   19.43   19.91
   4    17.86   17.43   17.13   16.94   16.85   16.85   16.94   17.13   17.42   17.85
   5    14.93   14.84   14.74   14.66   14.62   14.62   14.66   14.74   14.84   14.93
   6    12.29   12.27   12.23   12.19   12.17   12.17   12.19   12.22   12.26   12.29
   7     9.71    9.68    9.64    9.60    9.58    9.58    9.60    9.64    9.68    9.70
   8     7.15    7.09    6.99    6.89    6.83    6.83    6.89    6.99    7.09    7.15
   9     4.76    4.59    4.27    3.92    3.77    3.77    3.92    4.27    4.59    4.76
  10     3.03    2.59    1.64    0.00    0.00    0.00    0.00    1.64    2.59    3.03
1
              HEAD IN LAYER   2 AT END OF TIME STEP   6 IN STRESS PERIOD    3
  ---------------------------------------------------------------------------

           1       2       3       4       5       6       7       8       9      10
 ...................................................................................
   1     3.92    3.97    3.99    4.00    4.00    3.99    3.97    3.94    3.90    3.84
   2     3.68    5.61    5.50    5.09    4.67    4.35    4.43    4.77    4.95    3.55
   3     3.36    4.84    4.55    3.82    2.75    1.26    1.69    3.02    3.79    3.20
   4     2.98    4.09    3.85    3.33    2.66    1.88    2.06    2.77    3.26    2.82
   5     2.56    3.25    3.17    2.95    2.72    2.54    2.55    2.70    2.80    2.41
   6     2.12    2.35    2.31    2.23    2.15    2.09    2.09    2.12    2.14    1.99
   7     1.67    1.34    1.26    1.21    1.18    1.16    1.16    1.18    1.25    1.56
   8     1.22    0.26    0.07    0.00   -0.04   -0.05   -0.03    0.03    0.21    1.15
   9     0.81   -0.76   -1.12   -1.30   -1.38   -1.39   -1.32   -1.14   -0.79    0.76
  10     0.44    0.37    0.30    0.26    0.23    0.23    0.25    0.29    0.35    0.42
1
              HEAD IN LAYER   3 AT END OF TIME STEP   6 IN STRESS PERIOD    3
  ---------------------------------------------------------------------------

           1       2       3       4       5       6       7       8       9      10
 ...................................................................................
   1    -8.60   -8.73   -8.96   -9.27   -9.59   -9.83   -9.91   -9.85   -9.74   -9.67
   2    -8.84   -9.05   -9.46  -10.07  -10.80  -11.45  -11.45  -11.00  -10.57  -10.34
   3    -9.04   -9.37  -10.08  -11.33  -13.39  -16.85  -15.92  -13.20  -11.75  -11.10
   4    -8.73   -8.99   -9.54  -10.42  -11.71  -13.45  -13.11  -11.74  -10.86  -10.44
   5    -8.11   -8.24   -8.51   -8.88   -9.31   -9.67   -9.70   -9.48   -9.25   -9.11
   6    -7.54   -7.59   -7.70   -7.84   -7.98   -8.09   -8.13   -8.10   -8.06   -8.02
   7    -7.15   -7.17   -7.21   -7.26   -7.31   -7.35   -7.37   -7.37   -7.37   -7.36
   8    -6.94   -6.95   -6.97   -6.99   -7.01   -7.03   -7.03   -7.04   -7.04   -7.04
   9    -6.79   -6.80   -6.81   -6.82   -6.83   -6.84   -6.84   -6.85   -6.85   -6.85
  10    -6.71   -6.71   -6.72   -6.72   -6.73   -6.74   -6.74   -6.75   -6.75   -6.75

 HEAD WILL BE SAVED ON UNIT   21 AT END OF TIME STEP   6, STRESS PERIOD    3

 DRAWDOWN WILL BE SAVED ON UNIT   22 AT END OF TIME STEP   6, STRESS PERIOD    3
1
  VOLUMETRIC BUDGET FOR ENTIRE MODEL AT END OF TIME STEP  6 IN STRESS PERIOD   3
  ------------------------------------------------------------------------------

     CUMULATIVE VOLUMES      L**3       RATES FOR THIS TIME STEP      L**3/T
     ------------------                 ------------------------

           IN:                                      IN:
           ---                                      ---
             STORAGE =     4554176.0000               STORAGE =        5470.8633
       CONSTANT HEAD =           0.0000         CONSTANT HEAD =           0.0000
               WELLS =    21948000.0000                 WELLS =       30000.0000
    INST. IB STORAGE =     8593617.0000      INST. IB STORAGE =        9661.3467
    DELAY IB STORAGE =     8306695.5000      DELAY IB STORAGE =       13744.9307

            TOTAL IN =    43402488.0000              TOTAL IN =       58877.1406

          OUT:                                     OUT:
          ----                                     ----
             STORAGE =           0.0000               STORAGE =           0.0000
       CONSTANT HEAD =    21484402.0000         CONSTANT HEAD =       28877.2129
               WELLS =    21918000.0000                 WELLS =       30000.0000
    INST. IB STORAGE =           0.0000      INST. IB STORAGE =           0.0000
    DELAY IB STORAGE =           0.0000      DELAY IB STORAGE =           0.0000

           TOTAL OUT =    43402400.0000             TOTAL OUT =       58877.2109

            IN - OUT =          88.0000              IN - OUT =      -7.0312E-02

 PERCENT DISCREPANCY =           0.00     PERCENT DISCREPANCY =           0.00






          TIME SUMMARY AT END OF TIME STEP   6 IN STRESS PERIOD    3
                    SECONDS     MINUTES      HOURS       DAYS        YEARS
                    -----------------------------------------------------------
   TIME STEP LENGTH 9.18681E+06 1.53113E+05  2551.9      106.33     0.29111    
 STRESS PERIOD TIME 3.15619E+07 5.26032E+05  8767.2      365.30      1.0001    
         TOTAL TIME 6.32102E+07 1.05350E+06  17558.      731.60      2.0030    
1

                               VOLUMETRIC BUDGET FOR SYSTEMS OF DELAY INTERBEDS
                                          AT END OF TIME STEP  6 IN STRESS PERIOD  3

          |   C U M U L A T I V E   V O L U M E S   L**3           | R A T E S   F O R  T H I S  T I M E  S T E P   L**3/T  |
   SYSTEM |    CHANGE IN     BOUNDARY                    PERCENT   |    CHANGE IN     BOUNDARY                    PERCENT   |
   NUMBER |     STORAGE        FLOW           SUM      DISCREPANCY |     STORAGE        FLOW           SUM      DISCREPANCY |
  --------|--------------------------------------------------------|--------------------------------------------------------|
      1     7617.3        -7617.3       -0.48828E-03   -0.64102E-05     12.257        -12.257         0.0000         0.0000    
      2    0.82991E+07   -0.82991E+07     1.0000        0.12050E-04     13733.        -13733.       -0.19531E-02   -0.14222E-04
  --------|--------------------------------------------------------|--------------------------------------------------------|
 TOTALS:    0.83067E+07   -0.83067E+07     1.0000        0.12038E-04     13745.        -13745.       -0.19531E-02   -0.14210E-04
1
                            STRESS PERIOD NO.    4, LENGTH =   365.3000    
                            -----------------------------------------------

                              NUMBER OF TIME STEPS =     6

                               MULTIPLIER FOR DELT =     1.300

                            INITIAL TIME STEP SIZE =   28.63744    

 REUSING NON-PARAMETER WELLS FROM LAST STRESS PERIOD

     14 WELLS
 
 SOLVING FOR HEAD 

    28 ITERATIONS FOR TIME STEP   1 IN STRESS PERIOD    4

 OUTPUT CONTROL FOR STRESS PERIOD    4   TIME STEP   1
    SAVE HEAD FOR ALL LAYERS

 HEAD WILL BE SAVED ON UNIT   21 AT END OF TIME STEP   1, STRESS PERIOD    4
 
 SOLVING FOR HEAD 
    29 ITERATIONS FOR TIME STEP   2 IN STRESS PERIOD    4

 OUTPUT CONTROL FOR STRESS PERIOD    4   TIME STEP   2
    SAVE HEAD FOR ALL LAYERS

 HEAD WILL BE SAVED ON UNIT   21 AT END OF TIME STEP   2, STRESS PERIOD    4
 
 SOLVING FOR HEAD 
    29 ITERATIONS FOR TIME STEP   3 IN STRESS PERIOD    4

 OUTPUT CONTROL FOR STRESS PERIOD    4   TIME STEP   3
    SAVE HEAD FOR ALL LAYERS

 HEAD WILL BE SAVED ON UNIT   21 AT END OF TIME STEP   3, STRESS PERIOD    4
 
 SOLVING FOR HEAD 
    29 ITERATIONS FOR TIME STEP   4 IN STRESS PERIOD    4

 OUTPUT CONTROL FOR STRESS PERIOD    4   TIME STEP   4
    SAVE HEAD FOR ALL LAYERS

 HEAD WILL BE SAVED ON UNIT   21 AT END OF TIME STEP   4, STRESS PERIOD    4
 
 SOLVING FOR HEAD 
    29 ITERATIONS FOR TIME STEP   5 IN STRESS PERIOD    4

 MAXIMUM HEAD CHANGE FOR EACH ITERATION:

    HEAD CHANGE   HEAD CHANGE   HEAD CHANGE   HEAD CHANGE   HEAD CHANGE
  LAYER,ROW,COL LAYER,ROW,COL LAYER,ROW,COL LAYER,ROW,COL LAYER,ROW,COL
 ----------------------------------------------------------------------
     0.4917        0.6221       -0.2546        -1.627        0.9113    
  (  3,  3,  7) (  3,  1, 10) (  3,  1, 10) (  3,  1, 10) (  3,  1,  1)
     0.1108       -0.7251E-01   -0.5771E-01   -0.3424E-01   -0.2320E-01
  (  2,  7, 10) (  3,  3,  6) (  3,  3,  7) (  3,  3,  6) (  3,  3,  7)
    -0.1133E-01   -0.1568E-01   -0.1234E-01   -0.7274E-02   -0.5160E-02
  (  3,  3,  6) (  3,  3,  6) (  3,  3,  6) (  3,  3,  6) (  3,  3,  6)
    -0.2578E-02   -0.3406E-02   -0.2650E-02   -0.1662E-02   -0.1141E-02
  (  3,  3,  6) (  3,  3,  6) (  3,  3,  6) (  3,  3,  6) (  3,  3,  6)
    -0.6355E-03   -0.7542E-03   -0.6106E-03   -0.3800E-03   -0.2734E-03
  (  3,  3,  6) (  3,  3,  6) (  3,  3,  6) (  3,  3,  6) (  3,  3,  6)
    -0.1539E-03   -0.1401E-03   -0.1035E-03   -0.4527E-04
  (  3,  3,  6) (  3,  3,  6) (  3,  3,  6) (  3,  3,  6)


 OUTPUT CONTROL FOR STRESS PERIOD    4   TIME STEP   5
    SAVE HEAD FOR ALL LAYERS

 HEAD WILL BE SAVED ON UNIT   21 AT END OF TIME STEP   5, STRESS PERIOD    4
 
 SOLVING FOR HEAD 
    27 ITERATIONS FOR TIME STEP   6 IN STRESS PERIOD    4

 MAXIMUM HEAD CHANGE FOR EACH ITERATION:

    HEAD CHANGE   HEAD CHANGE   HEAD CHANGE   HEAD CHANGE   HEAD CHANGE
  LAYER,ROW,COL LAYER,ROW,COL LAYER,ROW,COL LAYER,ROW,COL LAYER,ROW,COL
 ----------------------------------------------------------------------
     0.3015        0.1791       -0.5151        0.2470       -0.6925E-01
  (  3,  3,  6) (  3,  3,  8) (  3,  2,  7) (  3,  1,  1) (  3,  3,  7)
    -0.3455E-01   -0.5759E-01   -0.4842E-01   -0.2649E-01   -0.1732E-01
  (  3,  3,  7) (  3,  3,  7) (  3,  3,  7) (  3,  3,  6) (  3,  3,  7)
    -0.9396E-02   -0.1147E-01   -0.9567E-02   -0.5389E-02   -0.3680E-02
  (  2,  8,  1) (  3,  3,  7) (  3,  3,  6) (  3,  3,  7) (  3,  3,  6)
    -0.1723E-02   -0.2369E-02   -0.1974E-02   -0.1204E-02   -0.7924E-03
  (  3,  3,  6) (  3,  3,  6) (  3,  3,  6) (  3,  3,  6) (  3,  3,  6)
    -0.4313E-03   -0.5120E-03   -0.4521E-03   -0.2754E-03   -0.1952E-03
  (  3,  3,  6) (  3,  3,  6) (  3,  3,  6) (  3,  3,  6) (  3,  3,  6)
    -0.1022E-03   -0.6859E-04
  (  3,  3,  6) (  3,  3,  6)


 OUTPUT CONTROL FOR STRESS PERIOD    4   TIME STEP   6
    PRINT BUDGET
    PRINT HEAD FOR ALL LAYERS
    SAVE HEAD FOR ALL LAYERS
    SAVE DRAWDOWN FOR ALL LAYERS
1
              HEAD IN LAYER   1 AT END OF TIME STEP   6 IN STRESS PERIOD    4
  ---------------------------------------------------------------------------

           1       2       3       4       5       6       7       8       9      10
 ...................................................................................
   1    22.34   22.00   21.34   20.92   20.72   20.72   20.92   21.34   21.99   22.34
   2    21.31   20.81   20.39   20.10   19.94   19.94   20.09   20.38   20.80   21.30
   3    19.80   19.31   18.95   18.70   18.58   18.58   18.70   18.94   19.30   19.79
   4    17.74   17.31   17.01   16.83   16.73   16.73   16.82   17.01   17.30   17.73
   5    14.82   14.73   14.63   14.55   14.50   14.50   14.54   14.62   14.73   14.81
   6    12.19   12.16   12.12   12.08   12.06   12.06   12.08   12.12   12.16   12.18
   7     9.61    9.59    9.55    9.51    9.49    9.49    9.51    9.55    9.58    9.61
   8     7.07    7.01    6.91    6.81    6.75    6.75    6.81    6.91    7.01    7.07
   9     4.70    4.53    4.22    3.87    3.72    3.72    3.87    4.22    4.53    4.70
  10     2.99    2.55    1.62    0.00    0.00    0.00    0.00    1.62    2.55    2.99
1
              HEAD IN LAYER   2 AT END OF TIME STEP   6 IN STRESS PERIOD    4
  ---------------------------------------------------------------------------

           1       2       3       4       5       6       7       8       9      10
 ...................................................................................
   1     3.30    3.34    3.36    3.37    3.37    3.36    3.33    3.30    3.26    3.21
   2     3.08    4.90    4.76    4.33    3.88    3.55    3.61    3.94    4.15    2.93
   3     2.79    4.15    3.82    3.07    1.97    0.45    0.87    2.19    2.99    2.60
   4     2.44    3.45    3.18    2.64    1.93    1.13    1.30    2.01    2.52    2.25
   5     2.06    2.69    2.60    2.36    2.11    1.91    1.91    2.05    2.17    1.88
   6     1.65    1.90    1.86    1.76    1.67    1.60    1.59    1.61    1.63    1.49
   7     1.23    1.00    0.93    0.87    0.83    0.80    0.80    0.81    0.87    1.10
   8     0.81    0.00   -0.18   -0.25   -0.29   -0.30   -0.28   -0.23   -0.07    0.72
   9     0.42   -0.99   -1.33   -1.51   -1.59   -1.60   -1.53   -1.36   -1.02    0.36
  10     0.08    0.00   -0.06   -0.10   -0.13   -0.13   -0.11   -0.07   -0.02    0.05
1
              HEAD IN LAYER   3 AT END OF TIME STEP   6 IN STRESS PERIOD    4
  ---------------------------------------------------------------------------

           1       2       3       4       5       6       7       8       9      10
 ...................................................................................
   1    -9.89  -10.03  -10.29  -10.63  -10.99  -11.26  -11.37  -11.33  -11.23  -11.16
   2   -10.13  -10.35  -10.79  -11.44  -12.21  -12.90  -12.93  -12.50  -12.08  -11.84
   3   -10.29  -10.64  -11.39  -12.68  -14.79  -18.30  -17.39  -14.69  -13.23  -12.58
   4    -9.87  -10.15  -10.73  -11.65  -12.99  -14.77  -14.45  -13.09  -12.22  -11.79
   5    -9.07   -9.22   -9.51   -9.91  -10.38  -10.77  -10.82  -10.61  -10.38  -10.25
   6    -8.28   -8.34   -8.47   -8.63   -8.80   -8.93   -8.98   -8.97   -8.93   -8.90
   7    -7.67   -7.70   -7.75   -7.82   -7.89   -7.94   -7.97   -7.99   -7.99   -7.98
   8    -7.29   -7.30   -7.32   -7.35   -7.38   -7.40   -7.42   -7.43   -7.43   -7.43
   9    -7.08   -7.09   -7.10   -7.11   -7.12   -7.13   -7.14   -7.14   -7.15   -7.14
  10    -7.00   -7.00   -7.01   -7.01   -7.02   -7.02   -7.03   -7.03   -7.03   -7.03

 HEAD WILL BE SAVED ON UNIT   21 AT END OF TIME STEP   6, STRESS PERIOD    4

 DRAWDOWN WILL BE SAVED ON UNIT   22 AT END OF TIME STEP   6, STRESS PERIOD    4
1
  VOLUMETRIC BUDGET FOR ENTIRE MODEL AT END OF TIME STEP  6 IN STRESS PERIOD   4
  ------------------------------------------------------------------------------

     CUMULATIVE VOLUMES      L**3       RATES FOR THIS TIME STEP      L**3/T
     ------------------                 ------------------------

           IN:                                      IN:
           ---                                      ---
             STORAGE =     6506249.5000               STORAGE =        5275.6230
       CONSTANT HEAD =         357.7330         CONSTANT HEAD =           2.8103
               WELLS =    32907002.0000                 WELLS =       30000.0000
    INST. IB STORAGE =    11695777.0000      INST. IB STORAGE =        7942.9424
    DELAY IB STORAGE =    13713846.0000      DELAY IB STORAGE =       15269.2354

            TOTAL IN =    64823232.0000              TOTAL IN =       58490.6094

          OUT:                                     OUT:
          ----                                     ----
             STORAGE =           0.0000               STORAGE =           0.0000
       CONSTANT HEAD =    31946172.0000         CONSTANT HEAD =       28490.8008
               WELLS =    32877002.0000                 WELLS =       30000.0000
    INST. IB STORAGE =           0.0000      INST. IB STORAGE =           0.0000
    DELAY IB STORAGE =           0.0000      DELAY IB STORAGE =           0.0000

           TOTAL OUT =    64823176.0000             TOTAL OUT =       58490.8008

            IN - OUT =          56.0000              IN - OUT =          -0.1914

 PERCENT DISCREPANCY =           0.00     PERCENT DISCREPANCY =           0.00






          TIME SUMMARY AT END OF TIME STEP   6 IN STRESS PERIOD    4
                    SECONDS     MINUTES      HOURS       DAYS        YEARS
                    -----------------------------------------------------------
   TIME STEP LENGTH 9.18681E+06 1.53113E+05  2551.9      106.33     0.29111    
 STRESS PERIOD TIME 3.15619E+07 5.26032E+05  8767.2      365.30      1.0001    
         TOTAL TIME 9.47722E+07 1.57954E+06  26326.      1096.9      3.0031    
1

                               VOLUMETRIC BUDGET FOR SYSTEMS OF DELAY INTERBEDS
                                          AT END OF TIME STEP  6 IN STRESS PERIOD  4

          |   C U M U L A T I V E   V O L U M E S   L**3           | R A T E S   F O R  T H I S  T I M E  S T E P   L**3/T  |
   SYSTEM |    CHANGE IN     BOUNDARY                    PERCENT   |    CHANGE IN     BOUNDARY                    PERCENT   |
   NUMBER |     STORAGE        FLOW           SUM      DISCREPANCY |     STORAGE        FLOW           SUM      DISCREPANCY |
  --------|--------------------------------------------------------|--------------------------------------------------------|
      1     12869.        -12869.       -0.97656E-03   -0.75887E-05     11.618        -11.618        0.95367E-06    0.82084E-05
      2    0.13701E+08   -0.13701E+08     1.0000        0.72987E-05     15258.        -15258.        0.97656E-03    0.64005E-05
  --------|--------------------------------------------------------|--------------------------------------------------------|
 TOTALS:    0.13714E+08   -0.13714E+08     1.0000        0.72919E-05     15269.        -15269.        0.97656E-03    0.63956E-05
1
                            STRESS PERIOD NO.    5, LENGTH =   365.3000    
                            -----------------------------------------------

                              NUMBER OF TIME STEPS =     6

                               MULTIPLIER FOR DELT =     1.300

                            INITIAL TIME STEP SIZE =   28.63744    

 REUSING NON-PARAMETER WELLS FROM LAST STRESS PERIOD

     14 WELLS
 
 SOLVING FOR HEAD 

    34 ITERATIONS FOR TIME STEP   1 IN STRESS PERIOD    5

 OUTPUT CONTROL FOR STRESS PERIOD    5   TIME STEP   1
    SAVE HEAD FOR ALL LAYERS

 HEAD WILL BE SAVED ON UNIT   21 AT END OF TIME STEP   1, STRESS PERIOD    5
 
 SOLVING FOR HEAD 
    31 ITERATIONS FOR TIME STEP   2 IN STRESS PERIOD    5

 OUTPUT CONTROL FOR STRESS PERIOD    5   TIME STEP   2
    SAVE HEAD FOR ALL LAYERS

 HEAD WILL BE SAVED ON UNIT   21 AT END OF TIME STEP   2, STRESS PERIOD    5
 
 SOLVING FOR HEAD 
    28 ITERATIONS FOR TIME STEP   3 IN STRESS PERIOD    5

 OUTPUT CONTROL FOR STRESS PERIOD    5   TIME STEP   3
    SAVE HEAD FOR ALL LAYERS

 HEAD WILL BE SAVED ON UNIT   21 AT END OF TIME STEP   3, STRESS PERIOD    5
 
 SOLVING FOR HEAD 
    28 ITERATIONS FOR TIME STEP   4 IN STRESS PERIOD    5

 OUTPUT CONTROL FOR STRESS PERIOD    5   TIME STEP   4
    SAVE HEAD FOR ALL LAYERS

 HEAD WILL BE SAVED ON UNIT   21 AT END OF TIME STEP   4, STRESS PERIOD    5
 
 SOLVING FOR HEAD 
    28 ITERATIONS FOR TIME STEP   5 IN STRESS PERIOD    5

 MAXIMUM HEAD CHANGE FOR EACH ITERATION:

    HEAD CHANGE   HEAD CHANGE   HEAD CHANGE   HEAD CHANGE   HEAD CHANGE
  LAYER,ROW,COL LAYER,ROW,COL LAYER,ROW,COL LAYER,ROW,COL LAYER,ROW,COL
 ----------------------------------------------------------------------
     0.6479         1.051        0.4878        -1.742       -0.8417    
  (  3,  3,  6) (  3,  1,  8) (  3,  1,  1) (  3,  1, 10) (  3,  1,  6)
     0.4794        0.1693        0.3483E-01   -0.3290E-01   -0.2133E-01
  (  3,  1, 10) (  3,  2,  3) (  2,  1, 10) (  3,  3,  6) (  3,  3,  7)
     0.1257E-01   -0.1345E-01   -0.1058E-01   -0.6182E-02   -0.4401E-02
  (  2,  6,  1) (  3,  3,  7) (  3,  3,  6) (  3,  3,  6) (  3,  3,  6)
    -0.2166E-02   -0.2912E-02   -0.2248E-02   -0.1413E-02   -0.9617E-03
  (  3,  3,  6) (  3,  3,  6) (  3,  3,  6) (  3,  3,  6) (  3,  3,  6)
    -0.5347E-03   -0.6407E-03   -0.5184E-03   -0.3180E-03   -0.2297E-03
  (  3,  3,  6) (  3,  3,  6) (  3,  3,  6) (  3,  3,  6) (  3,  3,  6)
    -0.1276E-03   -0.1042E-03   -0.5624E-04
  (  3,  3,  6) (  3,  3,  6) (  3,  3,  6)


 OUTPUT CONTROL FOR STRESS PERIOD    5   TIME STEP   5
    SAVE HEAD FOR ALL LAYERS

 HEAD WILL BE SAVED ON UNIT   21 AT END OF TIME STEP   5, STRESS PERIOD    5
 
 SOLVING FOR HEAD 
    26 ITERATIONS FOR TIME STEP   6 IN STRESS PERIOD    5

 MAXIMUM HEAD CHANGE FOR EACH ITERATION:

    HEAD CHANGE   HEAD CHANGE   HEAD CHANGE   HEAD CHANGE   HEAD CHANGE
  LAYER,ROW,COL LAYER,ROW,COL LAYER,ROW,COL LAYER,ROW,COL LAYER,ROW,COL
 ----------------------------------------------------------------------
     0.4284        0.5056       -0.1688        -1.485        0.7341    
  (  3,  3,  7) (  3,  1,  9) (  3,  1, 10) (  3,  1, 10) (  3,  1,  2)
     0.8982E-01   -0.6449E-01   -0.5592E-01   -0.3005E-01   -0.1909E-01
  (  2,  8, 10) (  3,  3,  7) (  3,  3,  7) (  3,  3,  6) (  3,  3,  7)
    -0.7872E-02   -0.1270E-01   -0.1070E-01   -0.5771E-02   -0.3853E-02
  (  3,  3,  6) (  3,  3,  7) (  3,  3,  6) (  3,  3,  7) (  3,  3,  6)
    -0.1663E-02   -0.2495E-02   -0.2083E-02   -0.1211E-02   -0.7842E-03
  (  3,  3,  6) (  3,  3,  6) (  3,  3,  6) (  3,  3,  6) (  3,  3,  6)
    -0.3928E-03   -0.5022E-03   -0.4442E-03   -0.2610E-03   -0.1779E-03
  (  3,  3,  6) (  3,  3,  6) (  3,  3,  6) (  3,  3,  6) (  3,  3,  6)
    -0.8858E-04
  (  3,  3,  6)


 OUTPUT CONTROL FOR STRESS PERIOD    5   TIME STEP   6
    PRINT BUDGET
    PRINT HEAD FOR ALL LAYERS
    SAVE HEAD FOR ALL LAYERS
    SAVE DRAWDOWN FOR ALL LAYERS
1
              HEAD IN LAYER   1 AT END OF TIME STEP   6 IN STRESS PERIOD    5
  ---------------------------------------------------------------------------

           1       2       3       4       5       6       7       8       9      10
 ...................................................................................
   1    22.22   21.87   21.22   20.80   20.60   20.60   20.80   21.21   21.87   22.21
   2    21.18   20.69   20.27   19.97   19.82   19.82   19.97   20.26   20.68   21.18
   3    19.68   19.19   18.82   18.58   18.46   18.45   18.57   18.82   19.18   19.67
   4    17.62   17.19   16.90   16.71   16.61   16.61   16.70   16.89   17.18   17.61
   5    14.71   14.62   14.52   14.44   14.39   14.39   14.43   14.51   14.61   14.70
   6    12.09   12.06   12.02   11.98   11.96   11.96   11.98   12.02   12.05   12.08
   7     9.52    9.50    9.46    9.42    9.40    9.40    9.42    9.46    9.49    9.52
   8     7.00    6.94    6.84    6.74    6.69    6.69    6.74    6.84    6.94    7.00
   9     4.65    4.48    4.17    3.83    3.68    3.68    3.83    4.17    4.48    4.65
  10     2.95    2.52    1.60    0.00    0.00    0.00    0.00    1.60    2.52    2.95
1
              HEAD IN LAYER   2 AT END OF TIME STEP   6 IN STRESS PERIOD    5
  ---------------------------------------------------------------------------

           1       2       3       4       5       6       7       8       9      10
 ...................................................................................
   1     2.80    2.83    2.85    2.86    2.85    2.84    2.82    2.79    2.75    2.70
   2     2.59    4.30    4.14    3.70    3.24    2.90    2.95    3.28    3.51    2.43
   3     2.32    3.57    3.22    2.45    1.34   -0.19    0.22    1.54    2.37    2.13
   4     2.00    2.92    2.63    2.08    1.36    0.55    0.71    1.42    1.95    1.80
   5     1.64    2.23    2.13    1.88    1.62    1.42    1.41    1.55    1.67    1.45
   6     1.26    1.52    1.48    1.38    1.27    1.20    1.18    1.20    1.22    1.10
   7     0.87    0.70    0.63    0.57    0.53    0.50    0.49    0.50    0.54    0.74
   8     0.49   -0.23   -0.39   -0.46   -0.51   -0.52   -0.51   -0.46   -0.31    0.39
   9     0.12   -1.16   -1.49   -1.66   -1.74   -1.75   -1.68   -1.52   -1.21    0.05
  10    -0.20   -0.27   -0.33   -0.38   -0.40   -0.40   -0.39   -0.35   -0.30   -0.24
1
              HEAD IN LAYER   3 AT END OF TIME STEP   6 IN STRESS PERIOD    5
  ---------------------------------------------------------------------------

           1       2       3       4       5       6       7       8       9      10
 ...................................................................................
   1   -10.99  -11.13  -11.41  -11.77  -12.14  -12.44  -12.56  -12.52  -12.43  -12.37
   2   -11.21  -11.44  -11.90  -12.56  -13.36  -14.07  -14.11  -13.68  -13.27  -13.03
   3   -11.32  -11.68  -12.45  -13.76  -15.90  -19.43  -18.54  -15.84  -14.38  -13.73
   4   -10.81  -11.09  -11.69  -12.64  -13.99  -15.79  -15.49  -14.14  -13.26  -12.83
   5    -9.87  -10.02  -10.32  -10.75  -11.23  -11.63  -11.69  -11.49  -11.26  -11.13
   6    -8.92   -8.99   -9.12   -9.29   -9.47   -9.62   -9.68   -9.67   -9.63   -9.61
   7    -8.16   -8.19   -8.25   -8.32   -8.39   -8.46   -8.50   -8.51   -8.52   -8.52
   8    -7.64   -7.65   -7.68   -7.71   -7.74   -7.77   -7.79   -7.81   -7.81   -7.82
   9    -7.32   -7.33   -7.34   -7.36   -7.38   -7.39   -7.40   -7.41   -7.41   -7.41
  10    -7.17   -7.18   -7.18   -7.19   -7.20   -7.21   -7.22   -7.23   -7.23   -7.23

 HEAD WILL BE SAVED ON UNIT   21 AT END OF TIME STEP   6, STRESS PERIOD    5

 DRAWDOWN WILL BE SAVED ON UNIT   22 AT END OF TIME STEP   6, STRESS PERIOD    5
1
  VOLUMETRIC BUDGET FOR ENTIRE MODEL AT END OF TIME STEP  6 IN STRESS PERIOD   5
  ------------------------------------------------------------------------------

     CUMULATIVE VOLUMES      L**3       RATES FOR THIS TIME STEP      L**3/T
     ------------------                 ------------------------

           IN:                                      IN:
           ---                                      ---
             STORAGE =     8397254.0000               STORAGE =        5119.0527
       CONSTANT HEAD =        2825.7605         CONSTANT HEAD =           9.3812
               WELLS =    43866000.0000                 WELLS =       30000.0000
    INST. IB STORAGE =    14360662.0000      INST. IB STORAGE =        6980.3428
    DELAY IB STORAGE =    19490620.0000      DELAY IB STORAGE =       16055.0732

            TOTAL IN =    86117360.0000              TOTAL IN =       58163.8516

          OUT:                                     OUT:
          ----                                     ----
             STORAGE =           0.0000               STORAGE =           0.0000
       CONSTANT HEAD =    42281320.0000         CONSTANT HEAD =       28164.2832
               WELLS =    43836000.0000                 WELLS =       30000.0000
    INST. IB STORAGE =           0.0000      INST. IB STORAGE =           0.0000
    DELAY IB STORAGE =          39.8223      DELAY IB STORAGE =           0.0000

           TOTAL OUT =    86117360.0000             TOTAL OUT =       58164.2812

            IN - OUT =           0.0000              IN - OUT =          -0.4297

 PERCENT DISCREPANCY =           0.00     PERCENT DISCREPANCY =           0.00






          TIME SUMMARY AT END OF TIME STEP   6 IN STRESS PERIOD    5
                    SECONDS     MINUTES      HOURS       DAYS        YEARS
                    -----------------------------------------------------------
   TIME STEP LENGTH 9.18681E+06 1.53113E+05  2551.9      106.33     0.29111    
 STRESS PERIOD TIME 3.15619E+07 5.26032E+05  8767.2      365.30      1.0001    
         TOTAL TIME 1.26334E+08 2.10557E+06  35093.      1462.2      4.0033    
1

                               VOLUMETRIC BUDGET FOR SYSTEMS OF DELAY INTERBEDS
                                          AT END OF TIME STEP  6 IN STRESS PERIOD  5

          |   C U M U L A T I V E   V O L U M E S   L**3           | R A T E S   F O R  T H I S  T I M E  S T E P   L**3/T  |
   SYSTEM |    CHANGE IN     BOUNDARY                    PERCENT   |    CHANGE IN     BOUNDARY                    PERCENT   |
   NUMBER |     STORAGE        FLOW           SUM      DISCREPANCY |     STORAGE        FLOW           SUM      DISCREPANCY |
  --------|--------------------------------------------------------|--------------------------------------------------------|
      1     18037.        -18037.       -0.19531E-02   -0.10828E-04     11.393        -11.393        0.19073E-05    0.16742E-04
      2    0.19473E+08   -0.19473E+08     0.0000         0.0000         16044.        -16044.        0.97656E-03    0.60869E-05
  --------|--------------------------------------------------------|--------------------------------------------------------|
 TOTALS:    0.19491E+08   -0.19491E+08     0.0000         0.0000         16055.        -16055.        0.97656E-03    0.60826E-05
1
                            STRESS PERIOD NO.    6, LENGTH =   365.3000    
                            -----------------------------------------------

                              NUMBER OF TIME STEPS =     6

                               MULTIPLIER FOR DELT =     1.300

                            INITIAL TIME STEP SIZE =   28.63744    

 REUSING NON-PARAMETER WELLS FROM LAST STRESS PERIOD

     14 WELLS
 
 SOLVING FOR HEAD 

    36 ITERATIONS FOR TIME STEP   1 IN STRESS PERIOD    6

 OUTPUT CONTROL FOR STRESS PERIOD    6   TIME STEP   1
    SAVE HEAD FOR ALL LAYERS

 HEAD WILL BE SAVED ON UNIT   21 AT END OF TIME STEP   1, STRESS PERIOD    6
 
 SOLVING FOR HEAD 
    34 ITERATIONS FOR TIME STEP   2 IN STRESS PERIOD    6

 OUTPUT CONTROL FOR STRESS PERIOD    6   TIME STEP   2
    SAVE HEAD FOR ALL LAYERS

 HEAD WILL BE SAVED ON UNIT   21 AT END OF TIME STEP   2, STRESS PERIOD    6
 
 SOLVING FOR HEAD 
    30 ITERATIONS FOR TIME STEP   3 IN STRESS PERIOD    6

 OUTPUT CONTROL FOR STRESS PERIOD    6   TIME STEP   3
    SAVE HEAD FOR ALL LAYERS

 HEAD WILL BE SAVED ON UNIT   21 AT END OF TIME STEP   3, STRESS PERIOD    6
 
 SOLVING FOR HEAD 
    28 ITERATIONS FOR TIME STEP   4 IN STRESS PERIOD    6

 OUTPUT CONTROL FOR STRESS PERIOD    6   TIME STEP   4
    SAVE HEAD FOR ALL LAYERS

 HEAD WILL BE SAVED ON UNIT   21 AT END OF TIME STEP   4, STRESS PERIOD    6
 
 SOLVING FOR HEAD 
    27 ITERATIONS FOR TIME STEP   5 IN STRESS PERIOD    6

 MAXIMUM HEAD CHANGE FOR EACH ITERATION:

    HEAD CHANGE   HEAD CHANGE   HEAD CHANGE   HEAD CHANGE   HEAD CHANGE
  LAYER,ROW,COL LAYER,ROW,COL LAYER,ROW,COL LAYER,ROW,COL LAYER,ROW,COL
 ----------------------------------------------------------------------
     0.7604         1.195        0.9002        -1.565        -2.030    
  (  3,  3,  7) (  3,  2, 10) (  3,  1,  1) (  3,  1, 10) (  3,  1,  1)
     0.6966        0.3676        0.9414E-01   -0.3288E-01   -0.2583E-01
  (  3,  1, 10) (  3,  2,  2) (  2,  1,  9) (  3,  3,  6) (  2, 10, 10)
     0.2871E-01   -0.1394E-01   -0.1103E-01   -0.6282E-02   -0.4378E-02
  (  2,  7,  1) (  3,  3,  6) (  3,  3,  6) (  3,  3,  6) (  3,  3,  6)
    -0.2016E-02   -0.2912E-02   -0.2264E-02   -0.1369E-02   -0.9186E-03
  (  3,  3,  6) (  3,  3,  6) (  3,  3,  6) (  3,  3,  6) (  3,  3,  6)
    -0.4738E-03   -0.6184E-03   -0.4969E-03   -0.2955E-03   -0.2081E-03
  (  3,  3,  6) (  3,  3,  6) (  3,  3,  6) (  3,  3,  6) (  3,  3,  6)
    -0.1078E-03   -0.8775E-04
  (  3,  3,  6) (  3,  3,  6)


 OUTPUT CONTROL FOR STRESS PERIOD    6   TIME STEP   5
    SAVE HEAD FOR ALL LAYERS

 HEAD WILL BE SAVED ON UNIT   21 AT END OF TIME STEP   5, STRESS PERIOD    6
 
 SOLVING FOR HEAD 
    26 ITERATIONS FOR TIME STEP   6 IN STRESS PERIOD    6

 MAXIMUM HEAD CHANGE FOR EACH ITERATION:

    HEAD CHANGE   HEAD CHANGE   HEAD CHANGE   HEAD CHANGE   HEAD CHANGE
  LAYER,ROW,COL LAYER,ROW,COL LAYER,ROW,COL LAYER,ROW,COL LAYER,ROW,COL
 ----------------------------------------------------------------------
     0.4099        0.6602        0.2014        -1.514        0.4182    
  (  3,  2, 10) (  3,  1,  9) (  3,  2,  1) (  3,  1, 10) (  3,  9, 10)
     0.6190E-01   -0.5790E-01   -0.5074E-01   -0.2326E-01   -0.1444E-01
  (  2,  3,  1) (  3,  3,  7) (  3,  3,  7) (  3,  3,  6) (  3,  3,  7)
    -0.1086E-01   -0.9559E-02   -0.8053E-02   -0.4375E-02   -0.2918E-02
  (  2,  7,  1) (  3,  3,  7) (  3,  3,  6) (  3,  3,  7) (  3,  3,  6)
    -0.1282E-02   -0.1889E-02   -0.1576E-02   -0.9240E-03   -0.5995E-03
  (  3,  3,  6) (  3,  3,  6) (  3,  3,  6) (  3,  3,  6) (  3,  3,  6)
    -0.3067E-03   -0.3775E-03   -0.3331E-03   -0.2023E-03   -0.1347E-03
  (  3,  3,  6) (  3,  3,  6) (  3,  3,  6) (  3,  3,  6) (  3,  3,  6)
    -0.6146E-04
  (  3,  3,  6)


 OUTPUT CONTROL FOR STRESS PERIOD    6   TIME STEP   6
    PRINT BUDGET
    PRINT HEAD FOR ALL LAYERS
    SAVE HEAD FOR ALL LAYERS
    SAVE DRAWDOWN FOR ALL LAYERS
1
              HEAD IN LAYER   1 AT END OF TIME STEP   6 IN STRESS PERIOD    6
  ---------------------------------------------------------------------------

           1       2       3       4       5       6       7       8       9      10
 ...................................................................................
   1    22.10   21.75   21.09   20.67   20.47   20.47   20.67   21.09   21.74   22.09
   2    21.06   20.56   20.14   19.85   19.69   19.69   19.84   20.14   20.56   21.05
   3    19.56   19.07   18.70   18.46   18.33   18.33   18.45   18.69   19.06   19.55
   4    17.51   17.08   16.78   16.59   16.50   16.49   16.58   16.77   17.07   17.50
   5    14.60   14.51   14.41   14.33   14.28   14.28   14.32   14.40   14.50   14.59
   6    11.99   11.96   11.92   11.88   11.86   11.86   11.88   11.92   11.96   11.98
   7     9.44    9.41    9.38    9.34    9.32    9.31    9.34    9.37    9.41    9.43
   8     6.93    6.87    6.78    6.68    6.62    6.62    6.68    6.78    6.87    6.93
   9     4.60    4.44    4.13    3.79    3.65    3.64    3.79    4.13    4.43    4.60
  10     2.92    2.50    1.58    0.00    0.00    0.00    0.00    1.58    2.50    2.92
1
              HEAD IN LAYER   2 AT END OF TIME STEP   6 IN STRESS PERIOD    6
  ---------------------------------------------------------------------------

           1       2       3       4       5       6       7       8       9      10
 ...................................................................................
   1     2.35    2.38    2.40    2.40    2.39    2.38    2.36    2.33    2.29    2.24
   2     2.16    3.78    3.60    3.15    2.68    2.33    2.38    2.71    2.96    1.99
   3     1.91    3.07    2.69    1.92    0.80   -0.74   -0.34    0.99    1.83    1.70
   4     1.60    2.46    2.15    1.59    0.87    0.04    0.20    0.91    1.46    1.39
   5     1.27    1.82    1.71    1.46    1.19    0.98    0.97    1.11    1.24    1.07
   6     0.91    1.17    1.13    1.02    0.92    0.85    0.82    0.84    0.86    0.74
   7     0.54    0.42    0.35    0.29    0.24    0.21    0.20    0.21    0.25    0.40
   8     0.18   -0.46   -0.61   -0.68   -0.73   -0.74   -0.73   -0.68   -0.55    0.07
   9    -0.17   -1.35   -1.66   -1.84   -1.92   -1.92   -1.86   -1.70   -1.40   -0.24
  10    -0.48   -0.55   -0.60   -0.64   -0.67   -0.67   -0.66   -0.62   -0.58   -0.52
1
              HEAD IN LAYER   3 AT END OF TIME STEP   6 IN STRESS PERIOD    6
  ---------------------------------------------------------------------------

           1       2       3       4       5       6       7       8       9      10
 ...................................................................................
   1   -11.95  -12.10  -12.38  -12.75  -13.14  -13.45  -13.57  -13.55  -13.46  -13.39
   2   -12.15  -12.39  -12.86  -13.54  -14.35  -15.07  -15.12  -14.70  -14.28  -14.05
   3   -12.22  -12.58  -13.36  -14.70  -16.85  -20.40  -19.52  -16.81  -15.35  -14.70
   4   -11.62  -11.92  -12.52  -13.48  -14.85  -16.67  -16.37  -15.02  -14.14  -13.72
   5   -10.58  -10.73  -11.04  -11.47  -11.97  -12.38  -12.45  -12.25  -12.02  -11.89
   6    -9.50   -9.58   -9.71   -9.89  -10.08  -10.23  -10.30  -10.29  -10.26  -10.23
   7    -8.63   -8.66   -8.72   -8.80   -8.88   -8.94   -8.99   -9.01   -9.01   -9.01
   8    -8.01   -8.02   -8.05   -8.08   -8.12   -8.15   -8.18   -8.19   -8.20   -8.20
   9    -7.62   -7.63   -7.64   -7.66   -7.68   -7.69   -7.71   -7.72   -7.72   -7.72
  10    -7.43   -7.43   -7.44   -7.45   -7.46   -7.48   -7.49   -7.49   -7.50   -7.50

 HEAD WILL BE SAVED ON UNIT   21 AT END OF TIME STEP   6, STRESS PERIOD    6

 DRAWDOWN WILL BE SAVED ON UNIT   22 AT END OF TIME STEP   6, STRESS PERIOD    6
1
  VOLUMETRIC BUDGET FOR ENTIRE MODEL AT END OF TIME STEP  6 IN STRESS PERIOD   6
  ------------------------------------------------------------------------------

     CUMULATIVE VOLUMES      L**3       RATES FOR THIS TIME STEP      L**3/T
     ------------------                 ------------------------

           IN:                                      IN:
           ---                                      ---
             STORAGE =    10235224.0000               STORAGE =        4978.9023
       CONSTANT HEAD =        7670.1226         CONSTANT HEAD =          15.8375
               WELLS =    54825000.0000                 WELLS =       30000.0000
    INST. IB STORAGE =    16770996.0000      INST. IB STORAGE =        6421.9146
    DELAY IB STORAGE =    25460094.0000      DELAY IB STORAGE =       16449.8984

            TOTAL IN =   107298984.0000              TOTAL IN =       57866.5547

          OUT:                                     OUT:
          ----                                     ----
             STORAGE =           0.0000               STORAGE =           0.0000
       CONSTANT HEAD =    52503980.0000         CONSTANT HEAD =       27866.7734
               WELLS =    54795000.0000                 WELLS =       30000.0000
    INST. IB STORAGE =           0.0000      INST. IB STORAGE =           0.0000
    DELAY IB STORAGE =          39.8223      DELAY IB STORAGE =           0.0000

           TOTAL OUT =   107299016.0000             TOTAL OUT =       57866.7734

            IN - OUT =         -32.0000              IN - OUT =          -0.2188

 PERCENT DISCREPANCY =           0.00     PERCENT DISCREPANCY =           0.00






          TIME SUMMARY AT END OF TIME STEP   6 IN STRESS PERIOD    6
                    SECONDS     MINUTES      HOURS       DAYS        YEARS
                    -----------------------------------------------------------
   TIME STEP LENGTH 9.18681E+06 1.53113E+05  2551.9      106.33     0.29111    
 STRESS PERIOD TIME 3.15619E+07 5.26032E+05  8767.2      365.30      1.0001    
         TOTAL TIME 1.57896E+08 2.63160E+06  43860.      1827.5      5.0034    
1

                               VOLUMETRIC BUDGET FOR SYSTEMS OF DELAY INTERBEDS
                                          AT END OF TIME STEP  6 IN STRESS PERIOD  6

          |   C U M U L A T I V E   V O L U M E S   L**3           | R A T E S   F O R  T H I S  T I M E  S T E P   L**3/T  |
   SYSTEM |    CHANGE IN     BOUNDARY                    PERCENT   |    CHANGE IN     BOUNDARY                    PERCENT   |
   NUMBER |     STORAGE        FLOW           SUM      DISCREPANCY |     STORAGE        FLOW           SUM      DISCREPANCY |
  --------|--------------------------------------------------------|--------------------------------------------------------|
      1     22957.        -22957.       -0.19531E-02   -0.85079E-05     10.581        -10.581       -0.95367E-06   -0.90128E-05
      2    0.25437E+08   -0.25437E+08     0.0000         0.0000         16439.        -16439.       -0.39063E-02   -0.23762E-04
  --------|--------------------------------------------------------|--------------------------------------------------------|
 TOTALS:    0.25460E+08   -0.25460E+08     0.0000         0.0000         16450.        -16450.       -0.39063E-02   -0.23746E-04
1
                            STRESS PERIOD NO.    7, LENGTH =   365.3000    
                            -----------------------------------------------

                              NUMBER OF TIME STEPS =     6

                               MULTIPLIER FOR DELT =     1.300

                            INITIAL TIME STEP SIZE =   28.63744    

 REUSING NON-PARAMETER WELLS FROM LAST STRESS PERIOD

     14 WELLS
 
 SOLVING FOR HEAD 

    36 ITERATIONS FOR TIME STEP   1 IN STRESS PERIOD    7

 OUTPUT CONTROL FOR STRESS PERIOD    7   TIME STEP   1
    SAVE HEAD FOR ALL LAYERS

 HEAD WILL BE SAVED ON UNIT   21 AT END OF TIME STEP   1, STRESS PERIOD    7
 
 SOLVING FOR HEAD 
    35 ITERATIONS FOR TIME STEP   2 IN STRESS PERIOD    7

 OUTPUT CONTROL FOR STRESS PERIOD    7   TIME STEP   2
    SAVE HEAD FOR ALL LAYERS

 HEAD WILL BE SAVED ON UNIT   21 AT END OF TIME STEP   2, STRESS PERIOD    7
 
 SOLVING FOR HEAD 
    31 ITERATIONS FOR TIME STEP   3 IN STRESS PERIOD    7

 OUTPUT CONTROL FOR STRESS PERIOD    7   TIME STEP   3
    SAVE HEAD FOR ALL LAYERS

 HEAD WILL BE SAVED ON UNIT   21 AT END OF TIME STEP   3, STRESS PERIOD    7
 
 SOLVING FOR HEAD 
    28 ITERATIONS FOR TIME STEP   4 IN STRESS PERIOD    7

 OUTPUT CONTROL FOR STRESS PERIOD    7   TIME STEP   4
    SAVE HEAD FOR ALL LAYERS

 HEAD WILL BE SAVED ON UNIT   21 AT END OF TIME STEP   4, STRESS PERIOD    7
 
 SOLVING FOR HEAD 
    26 ITERATIONS FOR TIME STEP   5 IN STRESS PERIOD    7

 MAXIMUM HEAD CHANGE FOR EACH ITERATION:

    HEAD CHANGE   HEAD CHANGE   HEAD CHANGE   HEAD CHANGE   HEAD CHANGE
  LAYER,ROW,COL LAYER,ROW,COL LAYER,ROW,COL LAYER,ROW,COL LAYER,ROW,COL
 ----------------------------------------------------------------------
     0.6943         1.364        0.9664        -1.451        -2.550    
  (  3,  1,  1) (  3,  2,  9) (  3,  1,  1) (  3,  1, 10) (  3,  1,  1)
     0.9134        0.5490        0.1578        0.8286E-01   -0.9178E-01
  (  3, 10,  1) (  3,  9,  3) (  2,  1,  7) (  2, 10,  1) (  3, 10,  7)
     0.8565E-01   -0.1530E-01   -0.1154E-01   -0.7332E-02   -0.5184E-02
  (  2,  6,  1) (  3,  3,  6) (  3,  3,  6) (  3,  9,  6) (  3, 10,  6)
    -0.2341E-02   -0.3502E-02   -0.2579E-02   -0.1473E-02   -0.9735E-03
  (  3, 10,  7) (  3,  9,  6) (  3,  9,  7) (  3,  9,  6) (  3,  9,  7)
    -0.4723E-03   -0.6609E-03   -0.5102E-03   -0.2839E-03   -0.1960E-03
  (  3, 10,  7) (  3,  9,  7) (  3,  9,  6) (  3,  9,  7) (  3,  9,  6)
    -0.9681E-04
  (  3,  3,  6)


 OUTPUT CONTROL FOR STRESS PERIOD    7   TIME STEP   5
    SAVE HEAD FOR ALL LAYERS

 HEAD WILL BE SAVED ON UNIT   21 AT END OF TIME STEP   5, STRESS PERIOD    7
 
 SOLVING FOR HEAD 
    25 ITERATIONS FOR TIME STEP   6 IN STRESS PERIOD    7

 MAXIMUM HEAD CHANGE FOR EACH ITERATION:

    HEAD CHANGE   HEAD CHANGE   HEAD CHANGE   HEAD CHANGE   HEAD CHANGE
  LAYER,ROW,COL LAYER,ROW,COL LAYER,ROW,COL LAYER,ROW,COL LAYER,ROW,COL
 ----------------------------------------------------------------------
     0.4892        0.8391        0.3848        -1.523        0.5682    
  (  3,  3, 10) (  3,  1, 10) (  3,  1,  1) (  3,  1, 10) (  3, 10,  1)
     0.7899E-01   -0.5405E-01   -0.4465E-01   -0.2324E-01   -0.1093E-01
  (  2,  3,  1) (  3,  3,  7) (  3,  3,  7) (  3,  3,  7) (  3,  3,  7)
    -0.1244E-01   -0.7095E-02   -0.5905E-02   -0.3331E-02   -0.2132E-02
  (  2,  7,  1) (  3,  3,  7) (  3,  3,  6) (  3,  3,  7) (  3,  3,  6)
    -0.9786E-03   -0.1395E-02   -0.1195E-02   -0.6840E-03   -0.4580E-03
  (  3,  3,  6) (  3,  3,  6) (  3,  3,  7) (  3,  3,  6) (  3,  3,  7)
    -0.2310E-03   -0.2677E-03   -0.2430E-03   -0.1579E-03   -0.9604E-04
  (  3,  3,  6) (  3,  3,  7) (  3,  3,  6) (  3,  3,  6) (  3,  3,  6)


 OUTPUT CONTROL FOR STRESS PERIOD    7   TIME STEP   6
    PRINT BUDGET
    PRINT HEAD FOR ALL LAYERS
    SAVE HEAD FOR ALL LAYERS
    SAVE DRAWDOWN FOR ALL LAYERS
1
              HEAD IN LAYER   1 AT END OF TIME STEP   6 IN STRESS PERIOD    7
  ---------------------------------------------------------------------------

           1       2       3       4       5       6       7       8       9      10
 ...................................................................................
   1    21.97   21.63   20.97   20.55   20.35   20.35   20.55   20.96   21.62   21.97
   2    20.94   20.44   20.02   19.72   19.57   19.57   19.72   20.01   20.43   20.93
   3    19.44   18.95   18.58   18.34   18.21   18.21   18.33   18.58   18.94   19.43
   4    17.39   16.96   16.67   16.48   16.38   16.38   16.47   16.66   16.95   17.39
   5    14.49   14.40   14.30   14.22   14.18   14.17   14.22   14.30   14.40   14.48
   6    11.89   11.87   11.83   11.79   11.77   11.77   11.79   11.82   11.86   11.89
   7     9.36    9.33    9.30    9.26    9.24    9.24    9.26    9.29    9.33    9.35
   8     6.87    6.81    6.72    6.62    6.56    6.56    6.62    6.71    6.81    6.87
   9     4.56    4.39    4.09    3.75    3.61    3.61    3.75    4.09    4.39    4.56
  10     2.89    2.47    1.56    0.00    0.00    0.00    0.00    1.56    2.47    2.89
1
              HEAD IN LAYER   2 AT END OF TIME STEP   6 IN STRESS PERIOD    7
  ---------------------------------------------------------------------------

           1       2       3       4       5       6       7       8       9      10
 ...................................................................................
   1     1.93    1.96    1.97    1.97    1.97    1.95    1.93    1.90    1.87    1.82
   2     1.75    3.30    3.11    2.65    2.18    1.82    1.87    2.20    2.45    1.58
   3     1.51    2.61    2.22    1.44    0.30   -1.24   -0.84    0.49    1.34    1.30
   4     1.23    2.03    1.71    1.14    0.41   -0.41   -0.26    0.45    1.01    1.01
   5     0.91    1.44    1.32    1.07    0.79    0.58    0.57    0.71    0.84    0.71
   6     0.57    0.84    0.80    0.69    0.58    0.51    0.48    0.50    0.52    0.40
   7     0.22    0.14    0.08    0.02   -0.03   -0.07   -0.08   -0.07   -0.04    0.08
   8    -0.12   -0.69   -0.83   -0.90   -0.95   -0.97   -0.96   -0.91   -0.79   -0.23
   9    -0.45   -1.55   -1.85   -2.02   -2.10   -2.11   -2.05   -1.89   -1.61   -0.53
  10    -0.75   -0.82   -0.87   -0.91   -0.93   -0.94   -0.92   -0.89   -0.85   -0.79
1
              HEAD IN LAYER   3 AT END OF TIME STEP   6 IN STRESS PERIOD    7
  ---------------------------------------------------------------------------

           1       2       3       4       5       6       7       8       9      10
 ...................................................................................
   1   -12.83  -12.98  -13.27  -13.64  -14.04  -14.36  -14.49  -14.47  -14.38  -14.32
   2   -13.01  -13.25  -13.73  -14.42  -15.24  -15.97  -16.02  -15.61  -15.19  -14.96
   3   -13.04  -13.40  -14.19  -15.54  -17.71  -21.27  -20.39  -17.69  -16.22  -15.58
   4   -12.37  -12.67  -13.28  -14.26  -15.64  -17.47  -17.18  -15.82  -14.95  -14.52
   5   -11.24  -11.40  -11.71  -12.15  -12.65  -13.07  -13.14  -12.94  -12.72  -12.59
   6   -10.06  -10.14  -10.28  -10.46  -10.65  -10.81  -10.88  -10.88  -10.84  -10.82
   7    -9.09   -9.13   -9.19   -9.27   -9.35   -9.42   -9.46   -9.49   -9.49   -9.49
   8    -8.39   -8.40   -8.43   -8.47   -8.51   -8.54   -8.57   -8.59   -8.60   -8.60
   9    -7.94   -7.95   -7.96   -7.98   -8.00   -8.02   -8.04   -8.05   -8.06   -8.06
  10    -7.72   -7.73   -7.74   -7.75   -7.76   -7.77   -7.78   -7.79   -7.80   -7.80

 HEAD WILL BE SAVED ON UNIT   21 AT END OF TIME STEP   6, STRESS PERIOD    7

 DRAWDOWN WILL BE SAVED ON UNIT   22 AT END OF TIME STEP   6, STRESS PERIOD    7
1
  VOLUMETRIC BUDGET FOR ENTIRE MODEL AT END OF TIME STEP  6 IN STRESS PERIOD   7
  ------------------------------------------------------------------------------

     CUMULATIVE VOLUMES      L**3       RATES FOR THIS TIME STEP      L**3/T
     ------------------                 ------------------------

           IN:                                      IN:
           ---                                      ---
             STORAGE =    12024208.0000               STORAGE =        4848.7378
       CONSTANT HEAD =       14846.9971         CONSTANT HEAD =          22.1835
               WELLS =    65784000.0000                 WELLS =       30000.0000
    INST. IB STORAGE =    19036878.0000      INST. IB STORAGE =        6097.7183
    DELAY IB STORAGE =    31516118.0000      DELAY IB STORAGE =       16618.9062

            TOTAL IN =   128376048.0000              TOTAL IN =       57587.5469

          OUT:                                     OUT:
          ----                                     ----
             STORAGE =           0.0000               STORAGE =           0.0000
       CONSTANT HEAD =    62622168.0000         CONSTANT HEAD =       27587.5723
               WELLS =    65754000.0000                 WELLS =       30000.0000
    INST. IB STORAGE =           0.0000      INST. IB STORAGE =           0.0000
    DELAY IB STORAGE =          39.8223      DELAY IB STORAGE =           0.0000

           TOTAL OUT =   128376208.0000             TOTAL OUT =       57587.5703

            IN - OUT =        -160.0000              IN - OUT =      -2.3438E-02

 PERCENT DISCREPANCY =           0.00     PERCENT DISCREPANCY =           0.00






          TIME SUMMARY AT END OF TIME STEP   6 IN STRESS PERIOD    7
                    SECONDS     MINUTES      HOURS       DAYS        YEARS
                    -----------------------------------------------------------
   TIME STEP LENGTH 9.18681E+06 1.53113E+05  2551.9      106.33     0.29111    
 STRESS PERIOD TIME 3.15619E+07 5.26032E+05  8767.2      365.30      1.0001    
         TOTAL TIME 1.89458E+08 3.15763E+06  52627.      2192.8      6.0036    
1

                               VOLUMETRIC BUDGET FOR SYSTEMS OF DELAY INTERBEDS
                                          AT END OF TIME STEP  6 IN STRESS PERIOD  7

          |   C U M U L A T I V E   V O L U M E S   L**3           | R A T E S   F O R  T H I S  T I M E  S T E P   L**3/T  |
   SYSTEM |    CHANGE IN     BOUNDARY                    PERCENT   |    CHANGE IN     BOUNDARY                    PERCENT   |
   NUMBER |     STORAGE        FLOW           SUM      DISCREPANCY |     STORAGE        FLOW           SUM      DISCREPANCY |
  --------|--------------------------------------------------------|--------------------------------------------------------|
      1     27750.        -27750.       -0.19531E-02   -0.70384E-05     10.131        -10.131       -0.19073E-05   -0.18827E-04
      2    0.31488E+08   -0.31488E+08     2.0000        0.63516E-05     16609.        -16609.         0.0000         0.0000    
  --------|--------------------------------------------------------|--------------------------------------------------------|
 TOTALS:    0.31516E+08   -0.31516E+08     2.0000        0.63460E-05     16619.        -16619.         0.0000         0.0000    
1
                            STRESS PERIOD NO.    8, LENGTH =   365.3000    
                            -----------------------------------------------

                              NUMBER OF TIME STEPS =     6

                               MULTIPLIER FOR DELT =     1.300

                            INITIAL TIME STEP SIZE =   28.63744    

 REUSING NON-PARAMETER WELLS FROM LAST STRESS PERIOD

     14 WELLS
 
 SOLVING FOR HEAD 

    36 ITERATIONS FOR TIME STEP   1 IN STRESS PERIOD    8

 OUTPUT CONTROL FOR STRESS PERIOD    8   TIME STEP   1
    SAVE HEAD FOR ALL LAYERS

 HEAD WILL BE SAVED ON UNIT   21 AT END OF TIME STEP   1, STRESS PERIOD    8
 
 SOLVING FOR HEAD 
    34 ITERATIONS FOR TIME STEP   2 IN STRESS PERIOD    8

 OUTPUT CONTROL FOR STRESS PERIOD    8   TIME STEP   2
    SAVE HEAD FOR ALL LAYERS

 HEAD WILL BE SAVED ON UNIT   21 AT END OF TIME STEP   2, STRESS PERIOD    8
 
 SOLVING FOR HEAD 
    31 ITERATIONS FOR TIME STEP   3 IN STRESS PERIOD    8

 OUTPUT CONTROL FOR STRESS PERIOD    8   TIME STEP   3
    SAVE HEAD FOR ALL LAYERS

 HEAD WILL BE SAVED ON UNIT   21 AT END OF TIME STEP   3, STRESS PERIOD    8
 
 SOLVING FOR HEAD 
    29 ITERATIONS FOR TIME STEP   4 IN STRESS PERIOD    8

 OUTPUT CONTROL FOR STRESS PERIOD    8   TIME STEP   4
    SAVE HEAD FOR ALL LAYERS

 HEAD WILL BE SAVED ON UNIT   21 AT END OF TIME STEP   4, STRESS PERIOD    8
 
 SOLVING FOR HEAD 
    26 ITERATIONS FOR TIME STEP   5 IN STRESS PERIOD    8

 MAXIMUM HEAD CHANGE FOR EACH ITERATION:

    HEAD CHANGE   HEAD CHANGE   HEAD CHANGE   HEAD CHANGE   HEAD CHANGE
  LAYER,ROW,COL LAYER,ROW,COL LAYER,ROW,COL LAYER,ROW,COL LAYER,ROW,COL
 ----------------------------------------------------------------------
     0.8866         1.278         1.065        -1.349        -2.688    
  (  3,  1, 10) (  3,  2,  8) (  3,  2,  4) (  3,  1, 10) (  3,  1,  1)
     0.8330        0.4989        0.1430        0.6009E-01   -0.3379E-01
  (  3, 10,  1) (  3,  9,  3) (  2,  1,  7) (  2, 10,  1) (  2, 10, 10)
     0.8086E-01   -0.1379E-01   -0.9885E-02   -0.5344E-02   -0.3548E-02
  (  2,  6,  1) (  3,  3,  7) (  3,  9,  5) (  3,  9,  4) (  3,  9,  2)
    -0.2949E-02   -0.2469E-02   -0.1862E-02   -0.9934E-03   -0.6625E-03
  (  2,  6,  1) (  3,  9,  3) (  3,  9,  3) (  3,  9,  5) (  3,  3,  6)
    -0.3204E-03   -0.4545E-03   -0.3512E-03   -0.2129E-03   -0.1403E-03
  (  3,  3,  6) (  3,  9,  2) (  3,  3,  6) (  3,  3,  6) (  3,  3,  6)
    -0.6706E-04
  (  3,  3,  6)


 OUTPUT CONTROL FOR STRESS PERIOD    8   TIME STEP   5
    SAVE HEAD FOR ALL LAYERS

 HEAD WILL BE SAVED ON UNIT   21 AT END OF TIME STEP   5, STRESS PERIOD    8
 
 SOLVING FOR HEAD 
    26 ITERATIONS FOR TIME STEP   6 IN STRESS PERIOD    8

 MAXIMUM HEAD CHANGE FOR EACH ITERATION:

    HEAD CHANGE   HEAD CHANGE   HEAD CHANGE   HEAD CHANGE   HEAD CHANGE
  LAYER,ROW,COL LAYER,ROW,COL LAYER,ROW,COL LAYER,ROW,COL LAYER,ROW,COL
 ----------------------------------------------------------------------
     0.5015        0.7546        0.4375        -1.400       -0.7915    
  (  3,  1, 10) (  3,  2, 10) (  3,  2,  2) (  3,  1, 10) (  3,  1,  1)
     0.3733        0.1777        0.4014E-01   -0.2353E-01   -0.1807E-01
  (  3,  1, 10) (  3,  2,  3) (  2,  1, 10) (  3,  2,  5) (  2,  1, 10)
     0.1241E-01   -0.1106E-01   -0.9239E-02   -0.4867E-02   -0.3134E-02
  (  2,  6,  1) (  3,  2,  7) (  3,  3,  6) (  3,  3,  7) (  3,  3,  6)
    -0.2287E-02   -0.2066E-02   -0.1724E-02   -0.9530E-03   -0.6097E-03
  (  2,  6,  1) (  3,  3,  6) (  3,  3,  6) (  3,  3,  6) (  3,  3,  6)
    -0.3451E-03   -0.3964E-03   -0.3409E-03   -0.1923E-03   -0.1228E-03
  (  2,  7,  1) (  3,  3,  7) (  3,  3,  6) (  3,  3,  6) (  3,  3,  6)
    -0.4696E-04
  (  3,  3,  6)


 OUTPUT CONTROL FOR STRESS PERIOD    8   TIME STEP   6
    PRINT BUDGET
    PRINT HEAD FOR ALL LAYERS
    SAVE HEAD FOR ALL LAYERS
    SAVE DRAWDOWN FOR ALL LAYERS
1
              HEAD IN LAYER   1 AT END OF TIME STEP   6 IN STRESS PERIOD    8
  ---------------------------------------------------------------------------

           1       2       3       4       5       6       7       8       9      10
 ...................................................................................
   1    21.85   21.51   20.85   20.43   20.22   20.22   20.42   20.84   21.50   21.85
   2    20.82   20.32   19.90   19.60   19.45   19.45   19.60   19.89   20.31   20.81
   3    19.32   18.83   18.47   18.22   18.10   18.09   18.21   18.46   18.82   19.31
   4    17.28   16.85   16.55   16.36   16.27   16.27   16.36   16.55   16.84   17.27
   5    14.39   14.30   14.20   14.12   14.07   14.07   14.11   14.19   14.29   14.38
   6    11.80   11.77   11.74   11.70   11.68   11.68   11.70   11.73   11.77   11.80
   7     9.28    9.26    9.22    9.18    9.16    9.16    9.18    9.22    9.25    9.28
   8     6.81    6.75    6.66    6.56    6.51    6.51    6.56    6.66    6.75    6.80
   9     4.52    4.35    4.05    3.72    3.58    3.58    3.72    4.05    4.35    4.52
  10     2.86    2.45    1.55    0.00    0.00    0.00    0.00    1.55    2.45    2.86
1
              HEAD IN LAYER   2 AT END OF TIME STEP   6 IN STRESS PERIOD    8
  ---------------------------------------------------------------------------

           1       2       3       4       5       6       7       8       9      10
 ...................................................................................
   1     1.54    1.56    1.57    1.57    1.57    1.55    1.53    1.50    1.47    1.42
   2     1.37    2.85    2.64    2.18    1.70    1.35    1.39    1.72    1.98    1.19
   3     1.14    2.17    1.77    0.98   -0.16   -1.71   -1.31    0.02    0.89    0.93
   4     0.87    1.62    1.30    0.72   -0.01   -0.84   -0.69    0.02    0.58    0.65
   5     0.57    1.08    0.95    0.69    0.42    0.20    0.19    0.32    0.46    0.36
   6     0.25    0.53    0.48    0.37    0.26    0.18    0.15    0.17    0.19    0.07
   7    -0.08   -0.14   -0.19   -0.25   -0.31   -0.34   -0.36   -0.35   -0.32   -0.23
   8    -0.42   -0.93   -1.06   -1.13   -1.18   -1.20   -1.18   -1.14   -1.03   -0.53
   9    -0.73   -1.76   -2.04   -2.21   -2.29   -2.30   -2.24   -2.09   -1.82   -0.81
  10    -1.02   -1.08   -1.13   -1.17   -1.19   -1.20   -1.18   -1.15   -1.11   -1.06
1
              HEAD IN LAYER   3 AT END OF TIME STEP   6 IN STRESS PERIOD    8
  ---------------------------------------------------------------------------

           1       2       3       4       5       6       7       8       9      10
 ...................................................................................
   1   -13.64  -13.79  -14.09  -14.47  -14.88  -15.20  -15.34  -15.32  -15.23  -15.17
   2   -13.81  -14.05  -14.53  -15.23  -16.06  -16.81  -16.86  -16.45  -16.04  -15.80
   3   -13.80  -14.17  -14.97  -16.32  -18.51  -22.08  -21.21  -18.50  -17.04  -16.38
   4   -13.08  -13.38  -14.00  -14.98  -16.37  -18.21  -17.92  -16.57  -15.69  -15.26
   5   -11.86  -12.03  -12.34  -12.79  -13.29  -13.72  -13.80  -13.60  -13.38  -13.25
   6   -10.60  -10.68  -10.82  -11.01  -11.21  -11.36  -11.44  -11.44  -11.41  -11.38
   7    -9.55   -9.59   -9.65   -9.73   -9.82   -9.89   -9.94   -9.96   -9.97   -9.97
   8    -8.78   -8.80   -8.83   -8.86   -8.90   -8.94   -8.97   -8.99   -9.00   -9.00
   9    -8.28   -8.29   -8.31   -8.33   -8.35   -8.37   -8.39   -8.40   -8.41   -8.41
  10    -8.04   -8.05   -8.06   -8.07   -8.08   -8.10   -8.11   -8.12   -8.12   -8.13

 HEAD WILL BE SAVED ON UNIT   21 AT END OF TIME STEP   6, STRESS PERIOD    8

 DRAWDOWN WILL BE SAVED ON UNIT   22 AT END OF TIME STEP   6, STRESS PERIOD    8
1
  VOLUMETRIC BUDGET FOR ENTIRE MODEL AT END OF TIME STEP  6 IN STRESS PERIOD   8
  ------------------------------------------------------------------------------

     CUMULATIVE VOLUMES      L**3       RATES FOR THIS TIME STEP      L**3/T
     ------------------                 ------------------------

           IN:                                      IN:
           ---                                      ---
             STORAGE =    13767202.0000               STORAGE =        4724.7622
       CONSTANT HEAD =       24328.5957         CONSTANT HEAD =          28.4720
               WELLS =    76743008.0000                 WELLS =       30000.0000
    INST. IB STORAGE =    21209458.0000      INST. IB STORAGE =        5877.8872
    DELAY IB STORAGE =    37610124.0000      DELAY IB STORAGE =       16689.9805

            TOTAL IN =   149354128.0000              TOTAL IN =       57321.1016

          OUT:                                     OUT:
          ----                                     ----
             STORAGE =           0.0000               STORAGE =           0.0000
       CONSTANT HEAD =    72641312.0000         CONSTANT HEAD =       27321.2695
               WELLS =    76713008.0000                 WELLS =       30000.0000
    INST. IB STORAGE =           0.0000      INST. IB STORAGE =           0.0000
    DELAY IB STORAGE =          39.8223      DELAY IB STORAGE =           0.0000

           TOTAL OUT =   149354352.0000             TOTAL OUT =       57321.2695

            IN - OUT =        -224.0000              IN - OUT =          -0.1680

 PERCENT DISCREPANCY =           0.00     PERCENT DISCREPANCY =           0.00






          TIME SUMMARY AT END OF TIME STEP   6 IN STRESS PERIOD    8
                    SECONDS     MINUTES      HOURS       DAYS        YEARS
                    -----------------------------------------------------------
   TIME STEP LENGTH 9.18681E+06 1.53113E+05  2551.9      106.33     0.29111    
 STRESS PERIOD TIME 3.15619E+07 5.26032E+05  8767.2      365.30      1.0001    
         TOTAL TIME 2.21020E+08 3.68366E+06  61394.      2558.1      7.0037    
1

                               VOLUMETRIC BUDGET FOR SYSTEMS OF DELAY INTERBEDS
                                          AT END OF TIME STEP  6 IN STRESS PERIOD  8

          |   C U M U L A T I V E   V O L U M E S   L**3           | R A T E S   F O R  T H I S  T I M E  S T E P   L**3/T  |
   SYSTEM |    CHANGE IN     BOUNDARY                    PERCENT   |    CHANGE IN     BOUNDARY                    PERCENT   |
   NUMBER |     STORAGE        FLOW           SUM      DISCREPANCY |     STORAGE        FLOW           SUM      DISCREPANCY |
  --------|--------------------------------------------------------|--------------------------------------------------------|
      1     32454.        -32454.       -0.19531E-02   -0.60180E-05     10.854        -10.854        0.95367E-06    0.87861E-05
      2    0.37578E+08   -0.37578E+08     0.0000         0.0000         16679.        -16679.        0.19531E-02    0.11710E-04
  --------|--------------------------------------------------------|--------------------------------------------------------|
 TOTALS:    0.37610E+08   -0.37610E+08     0.0000         0.0000         16690.        -16690.        0.19531E-02    0.11702E-04
1
                            STRESS PERIOD NO.    9, LENGTH =   365.3000    
                            -----------------------------------------------

                              NUMBER OF TIME STEPS =     6

                               MULTIPLIER FOR DELT =     1.300

                            INITIAL TIME STEP SIZE =   28.63744    

 REUSING NON-PARAMETER WELLS FROM LAST STRESS PERIOD

     14 WELLS
 
 SOLVING FOR HEAD 

    37 ITERATIONS FOR TIME STEP   1 IN STRESS PERIOD    9

 OUTPUT CONTROL FOR STRESS PERIOD    9   TIME STEP   1
    SAVE HEAD FOR ALL LAYERS

 HEAD WILL BE SAVED ON UNIT   21 AT END OF TIME STEP   1, STRESS PERIOD    9
 
 SOLVING FOR HEAD 
    35 ITERATIONS FOR TIME STEP   2 IN STRESS PERIOD    9

 OUTPUT CONTROL FOR STRESS PERIOD    9   TIME STEP   2
    SAVE HEAD FOR ALL LAYERS

 HEAD WILL BE SAVED ON UNIT   21 AT END OF TIME STEP   2, STRESS PERIOD    9
 
 SOLVING FOR HEAD 
    33 ITERATIONS FOR TIME STEP   3 IN STRESS PERIOD    9

 OUTPUT CONTROL FOR STRESS PERIOD    9   TIME STEP   3
    SAVE HEAD FOR ALL LAYERS

 HEAD WILL BE SAVED ON UNIT   21 AT END OF TIME STEP   3, STRESS PERIOD    9
 
 SOLVING FOR HEAD 
    29 ITERATIONS FOR TIME STEP   4 IN STRESS PERIOD    9

 OUTPUT CONTROL FOR STRESS PERIOD    9   TIME STEP   4
    SAVE HEAD FOR ALL LAYERS

 HEAD WILL BE SAVED ON UNIT   21 AT END OF TIME STEP   4, STRESS PERIOD    9
 
 SOLVING FOR HEAD 
    26 ITERATIONS FOR TIME STEP   5 IN STRESS PERIOD    9

 MAXIMUM HEAD CHANGE FOR EACH ITERATION:

    HEAD CHANGE   HEAD CHANGE   HEAD CHANGE   HEAD CHANGE   HEAD CHANGE
  LAYER,ROW,COL LAYER,ROW,COL LAYER,ROW,COL LAYER,ROW,COL LAYER,ROW,COL
 ----------------------------------------------------------------------
     0.7791         1.375         1.278        -1.306        -2.821    
  (  3,  1, 10) (  3,  1,  9) (  3,  1,  1) (  3,  1, 10) (  3,  1,  1)
     0.8214        0.4951        0.1433        0.7227E-01   -0.4883E-01
  (  3, 10,  1) (  3,  9,  3) (  2,  1,  8) (  2, 10,  1) (  2, 10, 10)
     0.7970E-01   -0.1358E-01   -0.8802E-02   -0.4688E-02   -0.3069E-02
  (  2,  6,  1) (  3,  3,  7) (  3,  8,  4) (  3,  9,  1) (  3,  9,  4)
    -0.2644E-02   -0.2142E-02   -0.1642E-02   -0.8647E-03   -0.5805E-03
  (  2,  6,  1) (  3,  9,  3) (  3,  9,  1) (  3,  9,  5) (  3,  4,  6)
    -0.2599E-03   -0.3974E-03   -0.3010E-03   -0.1810E-03   -0.1110E-03
  (  3,  3,  6) (  3,  9,  2) (  3,  8,  4) (  3,  4,  6) (  3,  3,  6)
    -0.4554E-04
  (  3,  3,  7)


 OUTPUT CONTROL FOR STRESS PERIOD    9   TIME STEP   5
    SAVE HEAD FOR ALL LAYERS

 HEAD WILL BE SAVED ON UNIT   21 AT END OF TIME STEP   5, STRESS PERIOD    9
 
 SOLVING FOR HEAD 
    26 ITERATIONS FOR TIME STEP   6 IN STRESS PERIOD    9

 MAXIMUM HEAD CHANGE FOR EACH ITERATION:

    HEAD CHANGE   HEAD CHANGE   HEAD CHANGE   HEAD CHANGE   HEAD CHANGE
  LAYER,ROW,COL LAYER,ROW,COL LAYER,ROW,COL LAYER,ROW,COL LAYER,ROW,COL
 ----------------------------------------------------------------------
     0.4705        0.9219        0.5162        -1.370        -1.044    
  (  3,  3, 10) (  3,  1, 10) (  3,  2,  1) (  3,  1, 10) (  3,  1,  1)
     0.4683        0.2581        0.6439E-01   -0.2472E-01   -0.2268E-01
  (  3,  1, 10) (  3,  2,  2) (  2,  1,  9) (  3,  2,  1) (  2,  1, 10)
     0.2124E-01   -0.1216E-01   -0.1013E-01   -0.5252E-02   -0.3354E-02
  (  2,  7,  1) (  3,  2,  7) (  3,  3,  6) (  3,  3,  6) (  3,  3,  6)
    -0.2756E-02   -0.2217E-02   -0.1854E-02   -0.1003E-02   -0.6374E-03
  (  2,  7,  1) (  3,  3,  6) (  3,  3,  6) (  3,  3,  6) (  3,  3,  6)
    -0.4131E-03   -0.4178E-03   -0.3570E-03   -0.1968E-03   -0.1283E-03
  (  2,  7,  1) (  3,  3,  6) (  3,  3,  6) (  3,  3,  6) (  3,  3,  6)
    -0.4888E-04
  (  2,  7,  1)


 OUTPUT CONTROL FOR STRESS PERIOD    9   TIME STEP   6
    PRINT BUDGET
    PRINT HEAD FOR ALL LAYERS
    SAVE HEAD FOR ALL LAYERS
    SAVE DRAWDOWN FOR ALL LAYERS
1
              HEAD IN LAYER   1 AT END OF TIME STEP   6 IN STRESS PERIOD    9
  ---------------------------------------------------------------------------

           1       2       3       4       5       6       7       8       9      10
 ...................................................................................
   1    21.73   21.39   20.73   20.31   20.10   20.10   20.30   20.72   21.38   21.73
   2    20.70   20.20   19.78   19.48   19.33   19.33   19.48   19.77   20.19   20.69
   3    19.21   18.72   18.35   18.11   17.98   17.98   18.10   18.34   18.71   19.20
   4    17.18   16.74   16.45   16.26   16.16   16.16   16.25   16.44   16.73   17.17
   5    14.29   14.20   14.10   14.02   13.97   13.97   14.01   14.09   14.19   14.28
   6    11.71   11.69   11.65   11.61   11.59   11.59   11.61   11.64   11.68   11.71
   7     9.21    9.18    9.14    9.11    9.09    9.08    9.11    9.14    9.18    9.20
   8     6.75    6.69    6.60    6.50    6.45    6.45    6.50    6.60    6.69    6.75
   9     4.48    4.31    4.02    3.68    3.55    3.54    3.68    4.02    4.31    4.47
  10     2.84    2.42    1.53    0.00    0.00    0.00    0.00    1.53    2.42    2.83
1
              HEAD IN LAYER   2 AT END OF TIME STEP   6 IN STRESS PERIOD    9
  ---------------------------------------------------------------------------

           1       2       3       4       5       6       7       8       9      10
 ...................................................................................
   1     1.16    1.18    1.19    1.19    1.18    1.16    1.14    1.12    1.08    1.04
   2     1.00    2.42    2.20    1.73    1.25    0.89    0.93    1.26    1.54    0.82
   3     0.78    1.76    1.34    0.55   -0.59   -2.15   -1.75   -0.42    0.46    0.56
   4     0.53    1.24    0.90    0.32   -0.42   -1.25   -1.10   -0.39    0.18    0.30
   5     0.24    0.73    0.59    0.33    0.06   -0.16   -0.18   -0.04    0.10    0.03
   6    -0.07    0.21    0.17    0.06   -0.06   -0.14   -0.16   -0.15   -0.13   -0.25
   7    -0.39   -0.41   -0.46   -0.52   -0.58   -0.61   -0.63   -0.62   -0.60   -0.54
   8    -0.70   -1.16   -1.29   -1.36   -1.41   -1.43   -1.42   -1.37   -1.27   -0.82
   9    -1.01   -1.97   -2.24   -2.41   -2.49   -2.50   -2.44   -2.29   -2.03   -1.09
  10    -1.28   -1.34   -1.39   -1.43   -1.45   -1.46   -1.45   -1.42   -1.38   -1.32
1
              HEAD IN LAYER   3 AT END OF TIME STEP   6 IN STRESS PERIOD    9
  ---------------------------------------------------------------------------

           1       2       3       4       5       6       7       8       9      10
 ...................................................................................
   1   -14.41  -14.57  -14.87  -15.26  -15.67  -16.00  -16.14  -16.12  -16.04  -15.98
   2   -14.57  -14.81  -15.30  -16.01  -16.85  -17.59  -17.66  -17.24  -16.83  -16.60
   3   -14.53  -14.90  -15.71  -17.07  -19.27  -22.84  -21.97  -19.27  -17.80  -17.15
   4   -13.75  -14.05  -14.68  -15.67  -17.07  -18.91  -18.63  -17.28  -16.40  -15.97
   5   -12.47  -12.63  -12.96  -13.41  -13.92  -14.35  -14.43  -14.23  -14.01  -13.88
   6   -11.14  -11.21  -11.36  -11.55  -11.75  -11.91  -11.99  -11.99  -11.96  -11.93
   7   -10.01  -10.05  -10.11  -10.19  -10.28  -10.36  -10.41  -10.43  -10.44  -10.44
   8    -9.18   -9.20   -9.23   -9.27   -9.31   -9.35   -9.38   -9.40   -9.41   -9.41
   9    -8.64   -8.65   -8.67   -8.69   -8.71   -8.73   -8.75   -8.76   -8.77   -8.77
  10    -8.38   -8.38   -8.39   -8.41   -8.42   -8.43   -8.45   -8.46   -8.46   -8.47

 HEAD WILL BE SAVED ON UNIT   21 AT END OF TIME STEP   6, STRESS PERIOD    9

 DRAWDOWN WILL BE SAVED ON UNIT   22 AT END OF TIME STEP   6, STRESS PERIOD    9
1
  VOLUMETRIC BUDGET FOR ENTIRE MODEL AT END OF TIME STEP  6 IN STRESS PERIOD   9
  ------------------------------------------------------------------------------

     CUMULATIVE VOLUMES      L**3       RATES FOR THIS TIME STEP      L**3/T
     ------------------                 ------------------------

           IN:                                      IN:
           ---                                      ---
             STORAGE =    15466872.0000               STORAGE =        4607.9297
       CONSTANT HEAD =       36099.4336         CONSTANT HEAD =          34.7271
               WELLS =    87702016.0000                 WELLS =       30000.0000
    INST. IB STORAGE =    23322968.0000      INST. IB STORAGE =        5728.9917
    DELAY IB STORAGE =    43709196.0000      DELAY IB STORAGE =       16693.0312

            TOTAL IN =   170237152.0000              TOTAL IN =       57064.6797

          OUT:                                     OUT:
          ----                                     ----
             STORAGE =           0.0000               STORAGE =           0.0000
       CONSTANT HEAD =    82565392.0000         CONSTANT HEAD =       27064.8770
               WELLS =    87672016.0000                 WELLS =       30000.0000
    INST. IB STORAGE =           0.0000      INST. IB STORAGE =           0.0000
    DELAY IB STORAGE =          39.8223      DELAY IB STORAGE =           0.0000

           TOTAL OUT =   170237440.0000             TOTAL OUT =       57064.8750

            IN - OUT =        -288.0000              IN - OUT =          -0.1953

 PERCENT DISCREPANCY =           0.00     PERCENT DISCREPANCY =           0.00






          TIME SUMMARY AT END OF TIME STEP   6 IN STRESS PERIOD    9
                    SECONDS     MINUTES      HOURS       DAYS        YEARS
                    -----------------------------------------------------------
   TIME STEP LENGTH 9.18681E+06 1.53113E+05  2551.9      106.33     0.29111    
 STRESS PERIOD TIME 3.15619E+07 5.26032E+05  8767.2      365.30      1.0001    
         TOTAL TIME 2.52582E+08 4.20970E+06  70162.      2923.4      8.0038    
1

                               VOLUMETRIC BUDGET FOR SYSTEMS OF DELAY INTERBEDS
                                          AT END OF TIME STEP  6 IN STRESS PERIOD  9

          |   C U M U L A T I V E   V O L U M E S   L**3           | R A T E S   F O R  T H I S  T I M E  S T E P   L**3/T  |
   SYSTEM |    CHANGE IN     BOUNDARY                    PERCENT   |    CHANGE IN     BOUNDARY                    PERCENT   |
   NUMBER |     STORAGE        FLOW           SUM      DISCREPANCY |     STORAGE        FLOW           SUM      DISCREPANCY |
  --------|--------------------------------------------------------|--------------------------------------------------------|
      1     37020.        -37020.       -0.39063E-02   -0.10552E-04     11.055        -11.055       -0.19073E-05   -0.17253E-04
      2    0.43672E+08   -0.43672E+08     0.0000         0.0000         16682.        -16682.        0.58594E-02    0.35124E-04
  --------|--------------------------------------------------------|--------------------------------------------------------|
 TOTALS:    0.43709E+08   -0.43709E+08     0.0000         0.0000         16693.        -16693.        0.58594E-02    0.35101E-04
1
                            STRESS PERIOD NO.   10, LENGTH =   365.3000    
                            -----------------------------------------------

                              NUMBER OF TIME STEPS =     6

                               MULTIPLIER FOR DELT =     1.300

                            INITIAL TIME STEP SIZE =   28.63744    

 REUSING NON-PARAMETER WELLS FROM LAST STRESS PERIOD

     14 WELLS
 
 SOLVING FOR HEAD 

    36 ITERATIONS FOR TIME STEP   1 IN STRESS PERIOD   10

 OUTPUT CONTROL FOR STRESS PERIOD   10   TIME STEP   1
    SAVE HEAD FOR ALL LAYERS

 HEAD WILL BE SAVED ON UNIT   21 AT END OF TIME STEP   1, STRESS PERIOD   10
 
 SOLVING FOR HEAD 
    35 ITERATIONS FOR TIME STEP   2 IN STRESS PERIOD   10

 OUTPUT CONTROL FOR STRESS PERIOD   10   TIME STEP   2
    SAVE HEAD FOR ALL LAYERS

 HEAD WILL BE SAVED ON UNIT   21 AT END OF TIME STEP   2, STRESS PERIOD   10
 
 SOLVING FOR HEAD 
    33 ITERATIONS FOR TIME STEP   3 IN STRESS PERIOD   10

 OUTPUT CONTROL FOR STRESS PERIOD   10   TIME STEP   3
    SAVE HEAD FOR ALL LAYERS

 HEAD WILL BE SAVED ON UNIT   21 AT END OF TIME STEP   3, STRESS PERIOD   10
 
 SOLVING FOR HEAD 
    29 ITERATIONS FOR TIME STEP   4 IN STRESS PERIOD   10

 OUTPUT CONTROL FOR STRESS PERIOD   10   TIME STEP   4
    SAVE HEAD FOR ALL LAYERS

 HEAD WILL BE SAVED ON UNIT   21 AT END OF TIME STEP   4, STRESS PERIOD   10
 
 SOLVING FOR HEAD 
    26 ITERATIONS FOR TIME STEP   5 IN STRESS PERIOD   10

 MAXIMUM HEAD CHANGE FOR EACH ITERATION:

    HEAD CHANGE   HEAD CHANGE   HEAD CHANGE   HEAD CHANGE   HEAD CHANGE
  LAYER,ROW,COL LAYER,ROW,COL LAYER,ROW,COL LAYER,ROW,COL LAYER,ROW,COL
 ----------------------------------------------------------------------
     0.7986         1.511         1.140        -1.290        -2.782    
  (  3,  1,  1) (  3,  1, 10) (  3,  2,  1) (  3,  1, 10) (  3,  1,  1)
     0.7942        0.4787        0.1384        0.7040E-01   -0.4806E-01
  (  3, 10,  1) (  3,  9,  3) (  2,  1,  8) (  2, 10,  1) (  2, 10, 10)
     0.7692E-01   -0.1280E-01   -0.8380E-02   -0.4487E-02   -0.2958E-02
  (  2,  6,  1) (  3,  3,  7) (  3,  8,  4) (  3,  8,  2) (  3,  9,  5)
    -0.2468E-02   -0.2054E-02   -0.1571E-02   -0.8377E-03   -0.5516E-03
  (  2,  6,  1) (  3,  9,  3) (  3,  8,  3) (  3,  9,  7) (  3,  8,  3)
    -0.2590E-03   -0.3812E-03   -0.2926E-03   -0.1643E-03   -0.1062E-03
  (  3, 10, 10) (  3,  9,  2) (  3,  8,  4) (  3,  3,  6) (  3,  9,  8)
    -0.4297E-04
  (  2,  2,  1)


 OUTPUT CONTROL FOR STRESS PERIOD   10   TIME STEP   5
    SAVE HEAD FOR ALL LAYERS

 HEAD WILL BE SAVED ON UNIT   21 AT END OF TIME STEP   5, STRESS PERIOD   10
 
 SOLVING FOR HEAD 
    26 ITERATIONS FOR TIME STEP   6 IN STRESS PERIOD   10

 MAXIMUM HEAD CHANGE FOR EACH ITERATION:

    HEAD CHANGE   HEAD CHANGE   HEAD CHANGE   HEAD CHANGE   HEAD CHANGE
  LAYER,ROW,COL LAYER,ROW,COL LAYER,ROW,COL LAYER,ROW,COL LAYER,ROW,COL
 ----------------------------------------------------------------------
     0.4596        0.8445        0.5396        -1.294        -1.102    
  (  3,  2, 10) (  3,  1, 10) (  3,  2,  1) (  3,  1, 10) (  3,  1,  1)
     0.4518        0.2563        0.6524E-01   -0.2338E-01   -0.2209E-01
  (  3,  1, 10) (  3,  2,  2) (  2,  1,  9) (  3,  2,  1) (  2,  1, 10)
     0.2059E-01   -0.1136E-01   -0.9520E-02   -0.4954E-02   -0.3101E-02
  (  2,  7,  1) (  3,  2,  7) (  3,  3,  6) (  3,  3,  6) (  3,  3,  6)
    -0.2511E-02   -0.2063E-02   -0.1741E-02   -0.9177E-03   -0.5906E-03
  (  2,  7,  1) (  3,  3,  6) (  3,  3,  6) (  3,  3,  6) (  3,  3,  6)
    -0.3814E-03   -0.3847E-03   -0.3255E-03   -0.1801E-03   -0.1119E-03
  (  2,  8,  1) (  3,  3,  6) (  3,  3,  6) (  3,  3,  6) (  3,  3,  6)
    -0.4516E-04
  (  2,  7,  1)


 OUTPUT CONTROL FOR STRESS PERIOD   10   TIME STEP   6
    PRINT BUDGET
    PRINT HEAD FOR ALL LAYERS
    SAVE HEAD FOR ALL LAYERS
    SAVE DRAWDOWN FOR ALL LAYERS
1
              HEAD IN LAYER   1 AT END OF TIME STEP   6 IN STRESS PERIOD   10
  ---------------------------------------------------------------------------

           1       2       3       4       5       6       7       8       9      10
 ...................................................................................
   1    21.62   21.27   20.61   20.19   19.99   19.98   20.19   20.60   21.26   21.61
   2    20.59   20.09   19.66   19.37   19.21   19.21   19.36   19.66   20.08   20.58
   3    19.10   18.61   18.24   17.99   17.87   17.86   17.99   18.23   18.60   19.09
   4    17.07   16.64   16.34   16.15   16.05   16.05   16.14   16.33   16.63   17.06
   5    14.19   14.10   14.00   13.92   13.87   13.87   13.92   14.00   14.10   14.18
   6    11.63   11.60   11.56   11.52   11.50   11.50   11.52   11.56   11.59   11.62
   7     9.13    9.11    9.07    9.04    9.01    9.01    9.03    9.07    9.11    9.13
   8     6.69    6.64    6.54    6.45    6.40    6.40    6.45    6.54    6.63    6.69
   9     4.44    4.27    3.98    3.65    3.51    3.51    3.65    3.98    4.27    4.44
  10     2.81    2.40    1.52    0.00    0.00    0.00    0.00    1.52    2.40    2.81
1
              HEAD IN LAYER   2 AT END OF TIME STEP   6 IN STRESS PERIOD   10
  ---------------------------------------------------------------------------

           1       2       3       4       5       6       7       8       9      10
 ...................................................................................
   1     0.79    0.81    0.82    0.82    0.81    0.79    0.77    0.74    0.71    0.67
   2     0.64    2.00    1.78    1.30    0.82    0.46    0.50    0.83    1.11    0.45
   3     0.43    1.35    0.93    0.13   -1.01   -2.57   -2.17   -0.85    0.04    0.21
   4     0.19    0.86    0.52   -0.06   -0.81   -1.64   -1.49   -0.78   -0.21   -0.04
   5    -0.09    0.38    0.25   -0.02   -0.30   -0.51   -0.53   -0.40   -0.25   -0.30
   6    -0.38   -0.09   -0.14   -0.25   -0.37   -0.45   -0.48   -0.46   -0.45   -0.57
   7    -0.68   -0.68   -0.73   -0.79   -0.85   -0.88   -0.90   -0.89   -0.88   -0.84
   8    -0.99   -1.40   -1.52   -1.59   -1.64   -1.66   -1.65   -1.61   -1.51   -1.10
   9    -1.28   -2.18   -2.45   -2.62   -2.70   -2.71   -2.65   -2.50   -2.25   -1.36
  10    -1.55   -1.61   -1.65   -1.69   -1.71   -1.72   -1.71   -1.68   -1.64   -1.59
1
              HEAD IN LAYER   3 AT END OF TIME STEP   6 IN STRESS PERIOD   10
  ---------------------------------------------------------------------------

           1       2       3       4       5       6       7       8       9      10
 ...................................................................................
   1   -15.16  -15.32  -15.62  -16.01  -16.43  -16.76  -16.91  -16.89  -16.81  -16.75
   2   -15.30  -15.55  -16.04  -16.75  -17.60  -18.35  -18.41  -18.00  -17.59  -17.36
   3   -15.23  -15.60  -16.41  -17.79  -19.99  -23.58  -22.71  -20.00  -18.53  -17.88
   4   -14.40  -14.71  -15.34  -16.34  -17.74  -19.59  -19.31  -17.96  -17.08  -16.65
   5   -13.06  -13.23  -13.55  -14.01  -14.52  -14.96  -15.04  -14.85  -14.63  -14.49
   6   -11.66  -11.74  -11.89  -12.08  -12.28  -12.44  -12.52  -12.53  -12.50  -12.47
   7   -10.47  -10.51  -10.57  -10.66  -10.75  -10.82  -10.88  -10.90  -10.91  -10.91
   8    -9.59   -9.60   -9.64   -9.68   -9.72   -9.76   -9.79   -9.81   -9.82   -9.83
   9    -9.01   -9.02   -9.04   -9.06   -9.08   -9.11   -9.12   -9.14   -9.14   -9.15
  10    -8.73   -8.73   -8.74   -8.76   -8.77   -8.79   -8.80   -8.81   -8.82   -8.82

 HEAD WILL BE SAVED ON UNIT   21 AT END OF TIME STEP   6, STRESS PERIOD   10

 DRAWDOWN WILL BE SAVED ON UNIT   22 AT END OF TIME STEP   6, STRESS PERIOD   10
1
  VOLUMETRIC BUDGET FOR ENTIRE MODEL AT END OF TIME STEP  6 IN STRESS PERIOD  10
  ------------------------------------------------------------------------------

     CUMULATIVE VOLUMES      L**3       RATES FOR THIS TIME STEP      L**3/T
     ------------------                 ------------------------

           IN:                                      IN:
           ---                                      ---
             STORAGE =    17125450.0000               STORAGE =        4497.4424
       CONSTANT HEAD =       50151.3672         CONSTANT HEAD =          40.9678
               WELLS =    98661024.0000                 WELLS =       30000.0000
    INST. IB STORAGE =    25395086.0000      INST. IB STORAGE =        5628.4331
    DELAY IB STORAGE =    49796640.0000      DELAY IB STORAGE =       16649.5020

            TOTAL IN =   191028352.0000              TOTAL IN =       56816.3438

          OUT:                                     OUT:
          ----                                     ----
             STORAGE =           0.0000               STORAGE =           0.0000
       CONSTANT HEAD =    92397624.0000         CONSTANT HEAD =       26816.5273
               WELLS =    98631024.0000                 WELLS =       30000.0000
    INST. IB STORAGE =           0.0000      INST. IB STORAGE =           0.0000
    DELAY IB STORAGE =          39.8223      DELAY IB STORAGE =           0.0000

           TOTAL OUT =   191028688.0000             TOTAL OUT =       56816.5273

            IN - OUT =        -336.0000              IN - OUT =          -0.1836

 PERCENT DISCREPANCY =           0.00     PERCENT DISCREPANCY =           0.00






          TIME SUMMARY AT END OF TIME STEP   6 IN STRESS PERIOD   10
                    SECONDS     MINUTES      HOURS       DAYS        YEARS
                    -----------------------------------------------------------
   TIME STEP LENGTH 9.18681E+06 1.53113E+05  2551.9      106.33     0.29111    
 STRESS PERIOD TIME 3.15619E+07 5.26032E+05  8767.2      365.30      1.0001    
         TOTAL TIME 2.84144E+08 4.73573E+06  78929.      3288.7      9.0040    
1

                               VOLUMETRIC BUDGET FOR SYSTEMS OF DELAY INTERBEDS
                                          AT END OF TIME STEP  6 IN STRESS PERIOD 10

          |   C U M U L A T I V E   V O L U M E S   L**3           | R A T E S   F O R  T H I S  T I M E  S T E P   L**3/T  |
   SYSTEM |    CHANGE IN     BOUNDARY                    PERCENT   |    CHANGE IN     BOUNDARY                    PERCENT   |
   NUMBER |     STORAGE        FLOW           SUM      DISCREPANCY |     STORAGE        FLOW           SUM      DISCREPANCY |
  --------|--------------------------------------------------------|--------------------------------------------------------|
      1     41421.        -41421.         0.0000         0.0000         10.814        -10.814        0.19073E-05    0.17638E-04
      2    0.49755E+08   -0.49755E+08     0.0000         0.0000         16639.        -16639.       -0.39063E-02   -0.23477E-04
  --------|--------------------------------------------------------|--------------------------------------------------------|
 TOTALS:    0.49797E+08   -0.49797E+08     0.0000         0.0000         16650.        -16650.       -0.39063E-02   -0.23462E-04
1
                            STRESS PERIOD NO.   11, LENGTH =   365.3000    
                            -----------------------------------------------

                              NUMBER OF TIME STEPS =     6

                               MULTIPLIER FOR DELT =     1.300

                            INITIAL TIME STEP SIZE =   28.63744    

 REUSING NON-PARAMETER WELLS FROM LAST STRESS PERIOD

     14 WELLS
 
 SOLVING FOR HEAD 

    38 ITERATIONS FOR TIME STEP   1 IN STRESS PERIOD   11

 OUTPUT CONTROL FOR STRESS PERIOD   11   TIME STEP   1
    SAVE HEAD FOR ALL LAYERS

 HEAD WILL BE SAVED ON UNIT   21 AT END OF TIME STEP   1, STRESS PERIOD   11
 
 SOLVING FOR HEAD 
    35 ITERATIONS FOR TIME STEP   2 IN STRESS PERIOD   11

 OUTPUT CONTROL FOR STRESS PERIOD   11   TIME STEP   2
    SAVE HEAD FOR ALL LAYERS

 HEAD WILL BE SAVED ON UNIT   21 AT END OF TIME STEP   2, STRESS PERIOD   11
 
 SOLVING FOR HEAD 
    34 ITERATIONS FOR TIME STEP   3 IN STRESS PERIOD   11

 OUTPUT CONTROL FOR STRESS PERIOD   11   TIME STEP   3
    SAVE HEAD FOR ALL LAYERS

 HEAD WILL BE SAVED ON UNIT   21 AT END OF TIME STEP   3, STRESS PERIOD   11
 
 SOLVING FOR HEAD 
    29 ITERATIONS FOR TIME STEP   4 IN STRESS PERIOD   11

 OUTPUT CONTROL FOR STRESS PERIOD   11   TIME STEP   4
    SAVE HEAD FOR ALL LAYERS

 HEAD WILL BE SAVED ON UNIT   21 AT END OF TIME STEP   4, STRESS PERIOD   11
 
 SOLVING FOR HEAD 
    26 ITERATIONS FOR TIME STEP   5 IN STRESS PERIOD   11

 MAXIMUM HEAD CHANGE FOR EACH ITERATION:

    HEAD CHANGE   HEAD CHANGE   HEAD CHANGE   HEAD CHANGE   HEAD CHANGE
  LAYER,ROW,COL LAYER,ROW,COL LAYER,ROW,COL LAYER,ROW,COL LAYER,ROW,COL
 ----------------------------------------------------------------------
     0.8456         1.340         1.172        -1.189        -2.844    
  (  3,  1,  1) (  3,  1, 10) (  3,  2,  1) (  3,  1, 10) (  3,  1,  1)
     0.8178        0.4923        0.1430        0.7346E-01   -0.4957E-01
  (  3, 10,  1) (  3,  9,  3) (  2,  1,  8) (  2, 10,  1) (  2, 10, 10)
     0.7985E-01    0.1342E-01   -0.8157E-02   -0.4437E-02   -0.2930E-02
  (  2,  6,  1) (  2,  1,  2) (  3,  8,  6) (  3,  9,  1) (  3,  9,  1)
    -0.2578E-02   -0.2033E-02   -0.1549E-02   -0.8190E-03   -0.5543E-03
  (  2,  5,  1) (  3,  9,  2) (  3,  9,  1) (  3,  8,  6) (  3,  9,  2)
    -0.2448E-03   -0.3793E-03   -0.2851E-03   -0.1577E-03   -0.1029E-03
  (  3, 10, 10) (  3,  9,  2) (  3,  8,  6) (  3,  9,  1) (  3,  8,  7)
    -0.4451E-04
  (  2,  2,  1)


 OUTPUT CONTROL FOR STRESS PERIOD   11   TIME STEP   5
    SAVE HEAD FOR ALL LAYERS

 HEAD WILL BE SAVED ON UNIT   21 AT END OF TIME STEP   5, STRESS PERIOD   11
 
 SOLVING FOR HEAD 
    25 ITERATIONS FOR TIME STEP   6 IN STRESS PERIOD   11

 MAXIMUM HEAD CHANGE FOR EACH ITERATION:

    HEAD CHANGE   HEAD CHANGE   HEAD CHANGE   HEAD CHANGE   HEAD CHANGE
  LAYER,ROW,COL LAYER,ROW,COL LAYER,ROW,COL LAYER,ROW,COL LAYER,ROW,COL
 ----------------------------------------------------------------------
     0.4822        0.7137        0.5158        -1.238        -1.075    
  (  3,  1, 10) (  3,  1,  8) (  3,  1,  1) (  3,  1, 10) (  3,  1,  1)
     0.4311        0.2371        0.6040E-01   -0.2185E-01   -0.2045E-01
  (  3,  1, 10) (  3,  2,  2) (  2,  1,  9) (  3,  2,  1) (  2,  1, 10)
     0.1901E-01   -0.1060E-01   -0.8760E-02   -0.4542E-02   -0.2838E-02
  (  2,  7,  1) (  3,  2,  7) (  3,  3,  6) (  3,  3,  6) (  3,  3,  6)
    -0.2328E-02   -0.1889E-02   -0.1594E-02   -0.8357E-03   -0.5363E-03
  (  2,  7,  1) (  3,  3,  6) (  3,  3,  6) (  3,  3,  6) (  3,  3,  6)
    -0.3502E-03   -0.3449E-03   -0.2945E-03   -0.1639E-03   -0.9920E-04
  (  2,  8,  1) (  3,  3,  6) (  3,  3,  6) (  3,  3,  6) (  3,  3,  6)


 OUTPUT CONTROL FOR STRESS PERIOD   11   TIME STEP   6
    PRINT BUDGET
    PRINT HEAD FOR ALL LAYERS
    SAVE HEAD FOR ALL LAYERS
    SAVE DRAWDOWN FOR ALL LAYERS
1
              HEAD IN LAYER   1 AT END OF TIME STEP   6 IN STRESS PERIOD   11
  ---------------------------------------------------------------------------

           1       2       3       4       5       6       7       8       9      10
 ...................................................................................
   1    21.50   21.16   20.49   20.07   19.87   19.87   20.07   20.49   21.15   21.50
   2    20.47   19.97   19.55   19.25   19.10   19.10   19.25   19.54   19.96   20.47
   3    18.99   18.50   18.13   17.88   17.76   17.75   17.88   18.12   18.49   18.98
   4    16.97   16.53   16.24   16.04   15.95   15.95   16.04   16.23   16.52   16.96
   5    14.10   14.01   13.91   13.82   13.78   13.78   13.82   13.90   14.00   14.09
   6    11.54   11.51   11.48   11.44   11.42   11.42   11.44   11.47   11.51   11.54
   7     9.06    9.04    9.00    8.97    8.94    8.94    8.96    9.00    9.04    9.06
   8     6.64    6.58    6.49    6.40    6.34    6.34    6.40    6.49    6.58    6.63
   9     4.40    4.24    3.95    3.62    3.48    3.48    3.62    3.95    4.24    4.40
  10     2.78    2.38    1.50    0.00    0.00    0.00    0.00    1.50    2.38    2.78
1
              HEAD IN LAYER   2 AT END OF TIME STEP   6 IN STRESS PERIOD   11
  ---------------------------------------------------------------------------

           1       2       3       4       5       6       7       8       9      10
 ...................................................................................
   1     0.42    0.45    0.45    0.45    0.44    0.42    0.40    0.38    0.35    0.31
   2     0.28    1.60    1.36    0.89    0.40    0.04    0.08    0.41    0.70    0.10
   3     0.09    0.96    0.53   -0.27   -1.42   -2.98   -2.58   -1.26   -0.36   -0.14
   4    -0.14    0.49    0.14   -0.44   -1.19   -2.03   -1.88   -1.16   -0.58   -0.38
   5    -0.41    0.05   -0.09   -0.36   -0.64   -0.86   -0.88   -0.75   -0.60   -0.63
   6    -0.69   -0.40   -0.45   -0.56   -0.67   -0.76   -0.79   -0.77   -0.76   -0.88
   7    -0.98   -0.95   -1.00   -1.06   -1.11   -1.15   -1.17   -1.17   -1.15   -1.13
   8    -1.27   -1.64   -1.76   -1.83   -1.88   -1.90   -1.89   -1.85   -1.76   -1.39
   9    -1.55   -2.40   -2.66   -2.83   -2.90   -2.92   -2.86   -2.71   -2.47   -1.63
  10    -1.81   -1.87   -1.92   -1.95   -1.97   -1.98   -1.97   -1.94   -1.90   -1.85
1
              HEAD IN LAYER   3 AT END OF TIME STEP   6 IN STRESS PERIOD   11
  ---------------------------------------------------------------------------

           1       2       3       4       5       6       7       8       9      10
 ...................................................................................
   1   -15.88  -16.04  -16.34  -16.74  -17.16  -17.50  -17.65  -17.63  -17.56  -17.49
   2   -16.01  -16.26  -16.75  -17.47  -18.32  -19.08  -19.14  -18.74  -18.32  -18.09
   3   -15.91  -16.29  -17.10  -18.48  -20.69  -24.28  -23.42  -20.71  -19.24  -18.59
   4   -15.04  -15.35  -15.98  -16.98  -18.40  -20.25  -19.97  -18.62  -17.74  -17.31
   5   -13.64  -13.81  -14.14  -14.59  -15.11  -15.55  -15.64  -15.45  -15.23  -15.09
   6   -12.18  -12.26  -12.41  -12.60  -12.81  -12.97  -13.06  -13.06  -13.03  -13.01
   7   -10.94  -10.97  -11.04  -11.13  -11.22  -11.29  -11.35  -11.37  -11.38  -11.39
   8   -10.00  -10.02  -10.05  -10.09  -10.14  -10.18  -10.21  -10.23  -10.24  -10.25
   9    -9.39   -9.40   -9.42   -9.44   -9.47   -9.49   -9.51   -9.52   -9.53   -9.53
  10    -9.09   -9.10   -9.11   -9.12   -9.14   -9.15   -9.17   -9.18   -9.18   -9.19

 HEAD WILL BE SAVED ON UNIT   21 AT END OF TIME STEP   6, STRESS PERIOD   11

 DRAWDOWN WILL BE SAVED ON UNIT   22 AT END OF TIME STEP   6, STRESS PERIOD   11
1
  VOLUMETRIC BUDGET FOR ENTIRE MODEL AT END OF TIME STEP  6 IN STRESS PERIOD  11
  ------------------------------------------------------------------------------

     CUMULATIVE VOLUMES      L**3       RATES FOR THIS TIME STEP      L**3/T
     ------------------                 ------------------------

           IN:                                      IN:
           ---                                      ---
             STORAGE =    18744888.0000               STORAGE =        4392.3857
       CONSTANT HEAD =       66482.8281         CONSTANT HEAD =          47.2105
               WELLS =   109620032.0000                 WELLS =       30000.0000
    INST. IB STORAGE =    27437778.0000      INST. IB STORAGE =        5556.5933
    DELAY IB STORAGE =    55861184.0000      DELAY IB STORAGE =       16578.7441

            TOTAL IN =   211730368.0000              TOTAL IN =       56574.9336

          OUT:                                     OUT:
          ----                                     ----
             STORAGE =           0.0000               STORAGE =           0.0000
       CONSTANT HEAD =   102140648.0000         CONSTANT HEAD =       26574.9961
               WELLS =   109590032.0000                 WELLS =       30000.0000
    INST. IB STORAGE =           0.0000      INST. IB STORAGE =           0.0000
    DELAY IB STORAGE =          39.8223      DELAY IB STORAGE =           0.0000

           TOTAL OUT =   211730720.0000             TOTAL OUT =       56574.9961

            IN - OUT =        -352.0000              IN - OUT =      -6.2500E-02

 PERCENT DISCREPANCY =           0.00     PERCENT DISCREPANCY =           0.00






          TIME SUMMARY AT END OF TIME STEP   6 IN STRESS PERIOD   11
                    SECONDS     MINUTES      HOURS       DAYS        YEARS
                    -----------------------------------------------------------
   TIME STEP LENGTH 9.18681E+06 1.53113E+05  2551.9      106.33     0.29111    
 STRESS PERIOD TIME 3.15619E+07 5.26032E+05  8767.2      365.30      1.0001    
         TOTAL TIME 3.15706E+08 5.26176E+06  87696.      3654.0      10.004    
1

                               VOLUMETRIC BUDGET FOR SYSTEMS OF DELAY INTERBEDS
                                          AT END OF TIME STEP  6 IN STRESS PERIOD 11

          |   C U M U L A T I V E   V O L U M E S   L**3           | R A T E S   F O R  T H I S  T I M E  S T E P   L**3/T  |
   SYSTEM |    CHANGE IN     BOUNDARY                    PERCENT   |    CHANGE IN     BOUNDARY                    PERCENT   |
   NUMBER |     STORAGE        FLOW           SUM      DISCREPANCY |     STORAGE        FLOW           SUM      DISCREPANCY |
  --------|--------------------------------------------------------|--------------------------------------------------------|
      1     45716.        -45716.       -0.39063E-02   -0.85447E-05     10.547        -10.547       -0.57220E-05   -0.54255E-04
      2    0.55815E+08   -0.55815E+08     0.0000         0.0000         16568.        -16568.       -0.19531E-02   -0.11788E-04
  --------|--------------------------------------------------------|--------------------------------------------------------|
 TOTALS:    0.55861E+08   -0.55861E+08     0.0000         0.0000         16579.        -16579.       -0.19531E-02   -0.11781E-04
1
                            STRESS PERIOD NO.   12, LENGTH =   365.3000    
                            -----------------------------------------------

                              NUMBER OF TIME STEPS =     6

                               MULTIPLIER FOR DELT =     1.300

                            INITIAL TIME STEP SIZE =   28.63744    

 REUSING NON-PARAMETER WELLS FROM LAST STRESS PERIOD

     14 WELLS
 
 SOLVING FOR HEAD 

    37 ITERATIONS FOR TIME STEP   1 IN STRESS PERIOD   12

 OUTPUT CONTROL FOR STRESS PERIOD   12   TIME STEP   1
    SAVE HEAD FOR ALL LAYERS

 HEAD WILL BE SAVED ON UNIT   21 AT END OF TIME STEP   1, STRESS PERIOD   12
 
 SOLVING FOR HEAD 
    36 ITERATIONS FOR TIME STEP   2 IN STRESS PERIOD   12

 OUTPUT CONTROL FOR STRESS PERIOD   12   TIME STEP   2
    SAVE HEAD FOR ALL LAYERS

 HEAD WILL BE SAVED ON UNIT   21 AT END OF TIME STEP   2, STRESS PERIOD   12
 
 SOLVING FOR HEAD 
    32 ITERATIONS FOR TIME STEP   3 IN STRESS PERIOD   12

 OUTPUT CONTROL FOR STRESS PERIOD   12   TIME STEP   3
    SAVE HEAD FOR ALL LAYERS

 HEAD WILL BE SAVED ON UNIT   21 AT END OF TIME STEP   3, STRESS PERIOD   12
 
 SOLVING FOR HEAD 
    29 ITERATIONS FOR TIME STEP   4 IN STRESS PERIOD   12

 OUTPUT CONTROL FOR STRESS PERIOD   12   TIME STEP   4
    SAVE HEAD FOR ALL LAYERS

 HEAD WILL BE SAVED ON UNIT   21 AT END OF TIME STEP   4, STRESS PERIOD   12
 
 SOLVING FOR HEAD 
    25 ITERATIONS FOR TIME STEP   5 IN STRESS PERIOD   12

 MAXIMUM HEAD CHANGE FOR EACH ITERATION:

    HEAD CHANGE   HEAD CHANGE   HEAD CHANGE   HEAD CHANGE   HEAD CHANGE
  LAYER,ROW,COL LAYER,ROW,COL LAYER,ROW,COL LAYER,ROW,COL LAYER,ROW,COL
 ----------------------------------------------------------------------
     0.7423         1.313         1.056        -1.071        -2.757    
  (  3,  1,  1) (  3,  1,  9) (  3,  2,  4) (  3,  1, 10) (  3,  1,  1)
     0.7678        0.4585        0.1321        0.6801E-01   -0.4609E-01
  (  3, 10,  1) (  3,  9,  3) (  2,  1,  8) (  2, 10,  1) (  2, 10, 10)
     0.7400E-01    0.1244E-01   -0.7614E-02   -0.4108E-02   -0.2746E-02
  (  2,  6,  1) (  2,  1,  2) (  3,  9,  5) (  3,  9,  4) (  3,  9,  4)
    -0.2388E-02   -0.1902E-02   -0.1434E-02   -0.7779E-03   -0.5163E-03
  (  2,  6,  1) (  3,  9,  4) (  3,  9,  3) (  3,  9,  5) (  3,  9,  4)
    -0.2279E-03   -0.3553E-03   -0.2698E-03   -0.1478E-03   -0.9874E-04
  (  3, 10, 10) (  3,  9,  3) (  3,  9,  5) (  3,  9,  4) (  3,  9,  5)


 OUTPUT CONTROL FOR STRESS PERIOD   12   TIME STEP   5
    SAVE HEAD FOR ALL LAYERS

 HEAD WILL BE SAVED ON UNIT   21 AT END OF TIME STEP   5, STRESS PERIOD   12
 
 SOLVING FOR HEAD 
    26 ITERATIONS FOR TIME STEP   6 IN STRESS PERIOD   12

 MAXIMUM HEAD CHANGE FOR EACH ITERATION:

    HEAD CHANGE   HEAD CHANGE   HEAD CHANGE   HEAD CHANGE   HEAD CHANGE
  LAYER,ROW,COL LAYER,ROW,COL LAYER,ROW,COL LAYER,ROW,COL LAYER,ROW,COL
 ----------------------------------------------------------------------
     0.4774        0.7144        0.5613        -1.228        -1.230    
  (  3,  1, 10) (  3,  1,  9) (  3,  2,  1) (  3,  1, 10) (  3,  1,  1)
     0.5275        0.3123        0.8462E-01    0.2727E-01   -0.2650E-01
  (  3,  1, 10) (  3,  2,  2) (  2,  1,  9) (  2, 10,  1) (  2, 10, 10)
     0.2705E-01   -0.1265E-01   -0.1050E-01   -0.5350E-02   -0.3329E-02
  (  2,  7,  1) (  3,  2,  7) (  3,  3,  6) (  3,  3,  6) (  3,  3,  6)
    -0.2736E-02   -0.2208E-02   -0.1867E-02   -0.9673E-03   -0.6087E-03
  (  2,  7,  1) (  3,  3,  6) (  3,  3,  6) (  3,  3,  6) (  3,  3,  6)
    -0.4304E-03   -0.4006E-03   -0.3394E-03   -0.1813E-03   -0.1145E-03
  (  2,  8,  1) (  3,  3,  6) (  3,  3,  6) (  3,  3,  6) (  3,  3,  6)
    -0.4832E-04
  (  2,  7,  1)


 OUTPUT CONTROL FOR STRESS PERIOD   12   TIME STEP   6
    PRINT BUDGET
    PRINT HEAD FOR ALL LAYERS
    SAVE HEAD FOR ALL LAYERS
    SAVE DRAWDOWN FOR ALL LAYERS
1
              HEAD IN LAYER   1 AT END OF TIME STEP   6 IN STRESS PERIOD   12
  ---------------------------------------------------------------------------

           1       2       3       4       5       6       7       8       9      10
 ...................................................................................
   1    21.39   21.04   20.38   19.96   19.76   19.76   19.96   20.37   21.04   21.38
   2    20.36   19.86   19.44   19.14   18.99   18.99   19.14   19.43   19.85   20.36
   3    18.88   18.39   18.02   17.78   17.65   17.65   17.77   18.01   18.38   18.87
   4    16.87   16.43   16.13   15.94   15.85   15.85   15.94   16.13   16.42   16.86
   5    14.00   13.92   13.81   13.73   13.69   13.68   13.73   13.81   13.91   13.99
   6    11.46   11.43   11.39   11.36   11.33   11.33   11.35   11.39   11.43   11.45
   7     8.99    8.97    8.93    8.90    8.88    8.87    8.90    8.93    8.97    8.99
   8     6.58    6.53    6.44    6.35    6.29    6.29    6.34    6.44    6.53    6.58
   9     4.36    4.20    3.91    3.59    3.45    3.45    3.59    3.91    4.20    4.36
  10     2.76    2.36    1.49    0.00    0.00    0.00    0.00    1.49    2.36    2.76
1
              HEAD IN LAYER   2 AT END OF TIME STEP   6 IN STRESS PERIOD   12
  ---------------------------------------------------------------------------

           1       2       3       4       5       6       7       8       9      10
 ...................................................................................
   1     0.07    0.09    0.10    0.09    0.08    0.07    0.05    0.02   -0.01   -0.05
   2    -0.06    1.20    0.96    0.49    0.00   -0.37   -0.33    0.00    0.30   -0.25
   3    -0.25    0.58    0.14   -0.66   -1.81   -3.37   -2.98   -1.65   -0.75   -0.47
   4    -0.47    0.13   -0.22   -0.81   -1.56   -2.40   -2.25   -1.54   -0.95   -0.71
   5    -0.72   -0.29   -0.43   -0.70   -0.98   -1.20   -1.22   -1.09   -0.94   -0.94
   6    -0.99   -0.70   -0.75   -0.86   -0.98   -1.06   -1.09   -1.08   -1.06   -1.18
   7    -1.27   -1.22   -1.27   -1.33   -1.38   -1.42   -1.44   -1.44   -1.43   -1.43
   8    -1.55   -1.89   -2.00   -2.07   -2.11   -2.14   -2.13   -2.09   -2.00   -1.67
   9    -1.83   -2.63   -2.87   -3.04   -3.12   -3.13   -3.07   -2.93   -2.69   -1.91
  10    -2.08   -2.13   -2.18   -2.21   -2.23   -2.24   -2.23   -2.20   -2.16   -2.12
1
              HEAD IN LAYER   3 AT END OF TIME STEP   6 IN STRESS PERIOD   12
  ---------------------------------------------------------------------------

           1       2       3       4       5       6       7       8       9      10
 ...................................................................................
   1   -16.58  -16.74  -17.05  -17.45  -17.87  -18.21  -18.37  -18.35  -18.28  -18.22
   2   -16.70  -16.95  -17.45  -18.17  -19.02  -19.78  -19.85  -19.45  -19.03  -18.80
   3   -16.57  -16.95  -17.77  -19.15  -21.37  -24.96  -24.10  -21.40  -19.93  -19.27
   4   -15.67  -15.97  -16.61  -17.62  -19.03  -20.89  -20.62  -19.27  -18.39  -17.96
   5   -14.21  -14.38  -14.71  -15.17  -15.70  -16.14  -16.22  -16.03  -15.81  -15.68
   6   -12.70  -12.78  -12.93  -13.13  -13.33  -13.50  -13.58  -13.59  -13.56  -13.54
   7   -11.40  -11.44  -11.51  -11.59  -11.69  -11.76  -11.82  -11.85  -11.86  -11.86
   8   -10.43  -10.44  -10.48  -10.52  -10.56  -10.60  -10.64  -10.66  -10.67  -10.68
   9    -9.78   -9.79   -9.81   -9.84   -9.86   -9.88   -9.90   -9.92   -9.93   -9.93
  10    -9.47   -9.47   -9.48   -9.50   -9.51   -9.53   -9.54   -9.56   -9.56   -9.57

 HEAD WILL BE SAVED ON UNIT   21 AT END OF TIME STEP   6, STRESS PERIOD   12

 DRAWDOWN WILL BE SAVED ON UNIT   22 AT END OF TIME STEP   6, STRESS PERIOD   12
1
  VOLUMETRIC BUDGET FOR ENTIRE MODEL AT END OF TIME STEP  6 IN STRESS PERIOD  12
  ------------------------------------------------------------------------------

     CUMULATIVE VOLUMES      L**3       RATES FOR THIS TIME STEP      L**3/T
     ------------------                 ------------------------

           IN:                                      IN:
           ---                                      ---
             STORAGE =    20326988.0000               STORAGE =        4291.8120
       CONSTANT HEAD =       85096.3594         CONSTANT HEAD =          53.4625
               WELLS =   120579040.0000                 WELLS =       30000.0000
    INST. IB STORAGE =    29457634.0000      INST. IB STORAGE =        5499.3081
    DELAY IB STORAGE =    61896736.0000      DELAY IB STORAGE =       16494.7168

            TOTAL IN =   232345488.0000              TOTAL IN =       56339.3008

          OUT:                                     OUT:
          ----                                     ----
             STORAGE =           0.0000               STORAGE =           0.0000
       CONSTANT HEAD =   111796768.0000         CONSTANT HEAD =       26339.4492
               WELLS =   120549040.0000                 WELLS =       30000.0000
    INST. IB STORAGE =           0.0000      INST. IB STORAGE =           0.0000
    DELAY IB STORAGE =          39.8223      DELAY IB STORAGE =           0.0000

           TOTAL OUT =   232345840.0000             TOTAL OUT =       56339.4492

            IN - OUT =        -352.0000              IN - OUT =          -0.1484

 PERCENT DISCREPANCY =           0.00     PERCENT DISCREPANCY =           0.00






          TIME SUMMARY AT END OF TIME STEP   6 IN STRESS PERIOD   12
                    SECONDS     MINUTES      HOURS       DAYS        YEARS
                    -----------------------------------------------------------
   TIME STEP LENGTH 9.18681E+06 1.53113E+05  2551.9      106.33     0.29111    
 STRESS PERIOD TIME 3.15619E+07 5.26032E+05  8767.2      365.30      1.0001    
         TOTAL TIME 3.47268E+08 5.78779E+06  96463.      4019.3      11.004    
1

                               VOLUMETRIC BUDGET FOR SYSTEMS OF DELAY INTERBEDS
                                          AT END OF TIME STEP  6 IN STRESS PERIOD 12

          |   C U M U L A T I V E   V O L U M E S   L**3           | R A T E S   F O R  T H I S  T I M E  S T E P   L**3/T  |
   SYSTEM |    CHANGE IN     BOUNDARY                    PERCENT   |    CHANGE IN     BOUNDARY                    PERCENT   |
   NUMBER |     STORAGE        FLOW           SUM      DISCREPANCY |     STORAGE        FLOW           SUM      DISCREPANCY |
  --------|--------------------------------------------------------|--------------------------------------------------------|
      1     49939.        -49939.       -0.39063E-02   -0.78220E-05     10.642        -10.642        0.47684E-05    0.44805E-04
      2    0.61847E+08   -0.61847E+08     0.0000         0.0000         16484.        -16484.        0.19531E-02    0.11849E-04
  --------|--------------------------------------------------------|--------------------------------------------------------|
 TOTALS:    0.61897E+08   -0.61897E+08     0.0000         0.0000         16495.        -16495.        0.19531E-02    0.11841E-04
1
                            STRESS PERIOD NO.   13, LENGTH =   365.3000    
                            -----------------------------------------------

                              NUMBER OF TIME STEPS =     6

                               MULTIPLIER FOR DELT =     1.300

                            INITIAL TIME STEP SIZE =   28.63744    

 REUSING NON-PARAMETER WELLS FROM LAST STRESS PERIOD

     14 WELLS
 
 SOLVING FOR HEAD 

    40 ITERATIONS FOR TIME STEP   1 IN STRESS PERIOD   13

 OUTPUT CONTROL FOR STRESS PERIOD   13   TIME STEP   1
    SAVE HEAD FOR ALL LAYERS

 HEAD WILL BE SAVED ON UNIT   21 AT END OF TIME STEP   1, STRESS PERIOD   13
 
 SOLVING FOR HEAD 
    36 ITERATIONS FOR TIME STEP   2 IN STRESS PERIOD   13

 OUTPUT CONTROL FOR STRESS PERIOD   13   TIME STEP   2
    SAVE HEAD FOR ALL LAYERS

 HEAD WILL BE SAVED ON UNIT   21 AT END OF TIME STEP   2, STRESS PERIOD   13
 
 SOLVING FOR HEAD 
    33 ITERATIONS FOR TIME STEP   3 IN STRESS PERIOD   13

 OUTPUT CONTROL FOR STRESS PERIOD   13   TIME STEP   3
    SAVE HEAD FOR ALL LAYERS

 HEAD WILL BE SAVED ON UNIT   21 AT END OF TIME STEP   3, STRESS PERIOD   13
 
 SOLVING FOR HEAD 
    29 ITERATIONS FOR TIME STEP   4 IN STRESS PERIOD   13

 OUTPUT CONTROL FOR STRESS PERIOD   13   TIME STEP   4
    SAVE HEAD FOR ALL LAYERS

 HEAD WILL BE SAVED ON UNIT   21 AT END OF TIME STEP   4, STRESS PERIOD   13
 
 SOLVING FOR HEAD 
    25 ITERATIONS FOR TIME STEP   5 IN STRESS PERIOD   13

 MAXIMUM HEAD CHANGE FOR EACH ITERATION:

    HEAD CHANGE   HEAD CHANGE   HEAD CHANGE   HEAD CHANGE   HEAD CHANGE
  LAYER,ROW,COL LAYER,ROW,COL LAYER,ROW,COL LAYER,ROW,COL LAYER,ROW,COL
 ----------------------------------------------------------------------
     0.6291         1.434         1.155        -1.074        -2.766    
  (  3,  2, 10) (  3,  1, 10) (  3,  2,  1) (  3,  1, 10) (  3,  1,  1)
     0.7741        0.4618        0.1352        0.6987E-01   -0.4695E-01
  (  3, 10,  1) (  3,  9,  3) (  2,  1,  8) (  2, 10,  1) (  2, 10, 10)
     0.7595E-01    0.1329E-01   -0.7501E-02   -0.4048E-02   -0.2684E-02
  (  2,  6,  1) (  2,  1,  2) (  3,  9,  5) (  3,  9,  4) (  3,  9,  4)
    -0.2343E-02   -0.1863E-02   -0.1413E-02   -0.7607E-03   -0.5066E-03
  (  2,  5,  1) (  3,  9,  4) (  3,  9,  3) (  3,  9,  6) (  3,  9,  4)
    -0.2190E-03   -0.3473E-03   -0.2636E-03   -0.1446E-03   -0.9504E-04
  (  3, 10, 10) (  3,  9,  3) (  3,  9,  5) (  3,  9,  4) (  3,  9,  6)


 OUTPUT CONTROL FOR STRESS PERIOD   13   TIME STEP   5
    SAVE HEAD FOR ALL LAYERS

 HEAD WILL BE SAVED ON UNIT   21 AT END OF TIME STEP   5, STRESS PERIOD   13
 
 SOLVING FOR HEAD 
    26 ITERATIONS FOR TIME STEP   6 IN STRESS PERIOD   13

 MAXIMUM HEAD CHANGE FOR EACH ITERATION:

    HEAD CHANGE   HEAD CHANGE   HEAD CHANGE   HEAD CHANGE   HEAD CHANGE
  LAYER,ROW,COL LAYER,ROW,COL LAYER,ROW,COL LAYER,ROW,COL LAYER,ROW,COL
 ----------------------------------------------------------------------
     0.4302        0.7794        0.4754        -1.161        -1.204    
  (  3,  1,  1) (  3,  1, 10) (  3,  2,  1) (  3,  1, 10) (  3,  1,  1)
     0.5109        0.3052        0.8315E-01    0.2712E-01   -0.2626E-01
  (  3,  1, 10) (  3,  2,  2) (  2,  1,  9) (  2, 10,  1) (  2, 10, 10)
     0.2605E-01   -0.1235E-01   -0.1016E-01   -0.5192E-02   -0.3186E-02
  (  2,  7,  1) (  3,  2,  7) (  3,  3,  6) (  3,  3,  6) (  3,  3,  6)
    -0.2630E-02   -0.2126E-02   -0.1805E-02   -0.9201E-03   -0.5833E-03
  (  2,  7,  1) (  3,  3,  6) (  3,  3,  6) (  3,  3,  6) (  3,  3,  6)
    -0.4119E-03   -0.3820E-03   -0.3213E-03   -0.1725E-03   -0.1065E-03
  (  2,  8,  1) (  3,  3,  6) (  3,  3,  6) (  3,  3,  6) (  3,  3,  6)
    -0.4734E-04
  (  2,  8,  1)


 OUTPUT CONTROL FOR STRESS PERIOD   13   TIME STEP   6
    PRINT BUDGET
    PRINT HEAD FOR ALL LAYERS
    SAVE HEAD FOR ALL LAYERS
    SAVE DRAWDOWN FOR ALL LAYERS
1
              HEAD IN LAYER   1 AT END OF TIME STEP   6 IN STRESS PERIOD   13
  ---------------------------------------------------------------------------

           1       2       3       4       5       6       7       8       9      10
 ...................................................................................
   1    21.28   20.93   20.27   19.85   19.65   19.64   19.85   20.26   20.93   21.28
   2    20.26   19.75   19.33   19.03   18.88   18.88   19.03   19.32   19.75   20.25
   3    18.78   18.29   17.92   17.67   17.54   17.54   17.66   17.91   18.28   18.77
   4    16.77   16.33   16.03   15.84   15.75   15.75   15.84   16.03   16.32   16.76
   5    13.91   13.82   13.72   13.64   13.59   13.59   13.64   13.72   13.82   13.90
   6    11.38   11.35   11.31   11.28   11.25   11.25   11.27   11.31   11.35   11.37
   7     8.93    8.90    8.87    8.83    8.81    8.81    8.83    8.86    8.90    8.92
   8     6.53    6.48    6.39    6.30    6.24    6.24    6.29    6.39    6.47    6.53
   9     4.32    4.17    3.88    3.56    3.43    3.43    3.56    3.88    4.16    4.32
  10     2.73    2.34    1.48    0.00    0.00    0.00    0.00    1.48    2.33    2.73
1
              HEAD IN LAYER   2 AT END OF TIME STEP   6 IN STRESS PERIOD   13
  ---------------------------------------------------------------------------

           1       2       3       4       5       6       7       8       9      10
 ...................................................................................
   1    -0.28   -0.26   -0.25   -0.26   -0.27   -0.28   -0.30   -0.33   -0.36   -0.40
   2    -0.40    0.82    0.57    0.09   -0.40   -0.77   -0.73   -0.40   -0.09   -0.59
   3    -0.58    0.21   -0.24   -1.04   -2.20   -3.76   -3.37   -2.04   -1.13   -0.81
   4    -0.79   -0.22   -0.58   -1.17   -1.92   -2.76   -2.61   -1.90   -1.31   -1.03
   5    -1.04   -0.61   -0.76   -1.03   -1.31   -1.53   -1.56   -1.42   -1.27   -1.26
   6    -1.29   -1.00   -1.05   -1.16   -1.28   -1.36   -1.39   -1.38   -1.37   -1.49
   7    -1.56   -1.49   -1.54   -1.60   -1.65   -1.69   -1.71   -1.71   -1.70   -1.72
   8    -1.84   -2.13   -2.24   -2.31   -2.36   -2.38   -2.37   -2.33   -2.25   -1.96
   9    -2.10   -2.85   -3.09   -3.26   -3.34   -3.35   -3.29   -3.15   -2.92   -2.18
  10    -2.34   -2.39   -2.44   -2.47   -2.49   -2.50   -2.49   -2.46   -2.43   -2.38
1
              HEAD IN LAYER   3 AT END OF TIME STEP   6 IN STRESS PERIOD   13
  ---------------------------------------------------------------------------

           1       2       3       4       5       6       7       8       9      10
 ...................................................................................
   1   -17.26  -17.43  -17.73  -18.14  -18.57  -18.91  -19.06  -19.05  -18.98  -18.92
   2   -17.37  -17.62  -18.12  -18.85  -19.70  -20.47  -20.54  -20.13  -19.72  -19.49
   3   -17.22  -17.60  -18.42  -19.81  -22.03  -25.63  -24.77  -22.07  -20.60  -19.94
   4   -16.28  -16.59  -17.23  -18.24  -19.66  -21.52  -21.24  -19.90  -19.02  -18.59
   5   -14.78  -14.95  -15.28  -15.75  -16.27  -16.72  -16.80  -16.61  -16.39  -16.26
   6   -13.22  -13.30  -13.45  -13.65  -13.86  -14.03  -14.11  -14.12  -14.09  -14.06
   7   -11.87  -11.91  -11.98  -12.07  -12.16  -12.24  -12.29  -12.32  -12.34  -12.34
   8   -10.86  -10.87  -10.91  -10.95  -10.99  -11.04  -11.07  -11.09  -11.11  -11.11
   9   -10.19  -10.20  -10.21  -10.24  -10.26  -10.29  -10.31  -10.32  -10.33  -10.33
  10    -9.85   -9.86   -9.87   -9.89   -9.90   -9.92   -9.93   -9.95   -9.95   -9.96

 HEAD WILL BE SAVED ON UNIT   21 AT END OF TIME STEP   6, STRESS PERIOD   13

 DRAWDOWN WILL BE SAVED ON UNIT   22 AT END OF TIME STEP   6, STRESS PERIOD   13
1
  VOLUMETRIC BUDGET FOR ENTIRE MODEL AT END OF TIME STEP  6 IN STRESS PERIOD  13
  ------------------------------------------------------------------------------

     CUMULATIVE VOLUMES      L**3       RATES FOR THIS TIME STEP      L**3/T
     ------------------                 ------------------------

           IN:                                      IN:
           ---                                      ---
             STORAGE =    21873532.0000               STORAGE =        4196.1304
       CONSTANT HEAD =      105997.7188         CONSTANT HEAD =          59.7315
               WELLS =   131538048.0000                 WELLS =       30000.0000
    INST. IB STORAGE =    31459998.0000      INST. IB STORAGE =        5451.0884
    DELAY IB STORAGE =    67898176.0000      DELAY IB STORAGE =       16402.1758

            TOTAL IN =   252875744.0000              TOTAL IN =       56109.1250

          OUT:                                     OUT:
          ----                                     ----
             STORAGE =           0.0000               STORAGE =           0.0000
       CONSTANT HEAD =   121368040.0000         CONSTANT HEAD =       26109.2617
               WELLS =   131508048.0000                 WELLS =       30000.0000
    INST. IB STORAGE =           0.0000      INST. IB STORAGE =           0.0000
    DELAY IB STORAGE =          39.8223      DELAY IB STORAGE =           0.0000

           TOTAL OUT =   252876128.0000             TOTAL OUT =       56109.2617

            IN - OUT =        -384.0000              IN - OUT =          -0.1367

 PERCENT DISCREPANCY =           0.00     PERCENT DISCREPANCY =           0.00






          TIME SUMMARY AT END OF TIME STEP   6 IN STRESS PERIOD   13
                    SECONDS     MINUTES      HOURS       DAYS        YEARS
                    -----------------------------------------------------------
   TIME STEP LENGTH 9.18681E+06 1.53113E+05  2551.9      106.33     0.29111    
 STRESS PERIOD TIME 3.15619E+07 5.26032E+05  8767.2      365.30      1.0001    
         TOTAL TIME 3.78830E+08 6.31383E+06 1.05230E+05  4384.6      12.004    
1

                               VOLUMETRIC BUDGET FOR SYSTEMS OF DELAY INTERBEDS
                                          AT END OF TIME STEP  6 IN STRESS PERIOD 13

          |   C U M U L A T I V E   V O L U M E S   L**3           | R A T E S   F O R  T H I S  T I M E  S T E P   L**3/T  |
   SYSTEM |    CHANGE IN     BOUNDARY                    PERCENT   |    CHANGE IN     BOUNDARY                    PERCENT   |
   NUMBER |     STORAGE        FLOW           SUM      DISCREPANCY |     STORAGE        FLOW           SUM      DISCREPANCY |
  --------|--------------------------------------------------------|--------------------------------------------------------|
      1     54040.        -54040.       -0.78125E-02   -0.14457E-04     10.374        -10.374        0.95367E-06    0.91925E-05
      2    0.67844E+08   -0.67844E+08     0.0000         0.0000         16392.        -16392.         0.0000         0.0000    
  --------|--------------------------------------------------------|--------------------------------------------------------|
 TOTALS:    0.67898E+08   -0.67898E+08     0.0000         0.0000         16402.        -16402.         0.0000         0.0000    
1
                            STRESS PERIOD NO.   14, LENGTH =   365.3000    
                            -----------------------------------------------

                              NUMBER OF TIME STEPS =     6

                               MULTIPLIER FOR DELT =     1.300

                            INITIAL TIME STEP SIZE =   28.63744    

 REUSING NON-PARAMETER WELLS FROM LAST STRESS PERIOD

     14 WELLS
 
 SOLVING FOR HEAD 

    35 ITERATIONS FOR TIME STEP   1 IN STRESS PERIOD   14

 OUTPUT CONTROL FOR STRESS PERIOD   14   TIME STEP   1
    SAVE HEAD FOR ALL LAYERS

 HEAD WILL BE SAVED ON UNIT   21 AT END OF TIME STEP   1, STRESS PERIOD   14
 
 SOLVING FOR HEAD 
    35 ITERATIONS FOR TIME STEP   2 IN STRESS PERIOD   14

 OUTPUT CONTROL FOR STRESS PERIOD   14   TIME STEP   2
    SAVE HEAD FOR ALL LAYERS

 HEAD WILL BE SAVED ON UNIT   21 AT END OF TIME STEP   2, STRESS PERIOD   14
 
 SOLVING FOR HEAD 
    32 ITERATIONS FOR TIME STEP   3 IN STRESS PERIOD   14

 OUTPUT CONTROL FOR STRESS PERIOD   14   TIME STEP   3
    SAVE HEAD FOR ALL LAYERS

 HEAD WILL BE SAVED ON UNIT   21 AT END OF TIME STEP   3, STRESS PERIOD   14
 
 SOLVING FOR HEAD 
    29 ITERATIONS FOR TIME STEP   4 IN STRESS PERIOD   14

 OUTPUT CONTROL FOR STRESS PERIOD   14   TIME STEP   4
    SAVE HEAD FOR ALL LAYERS

 HEAD WILL BE SAVED ON UNIT   21 AT END OF TIME STEP   4, STRESS PERIOD   14
 
 SOLVING FOR HEAD 
    25 ITERATIONS FOR TIME STEP   5 IN STRESS PERIOD   14

 MAXIMUM HEAD CHANGE FOR EACH ITERATION:

    HEAD CHANGE   HEAD CHANGE   HEAD CHANGE   HEAD CHANGE   HEAD CHANGE
  LAYER,ROW,COL LAYER,ROW,COL LAYER,ROW,COL LAYER,ROW,COL LAYER,ROW,COL
 ----------------------------------------------------------------------
     0.7887         1.154         1.111        -1.000        -2.742    
  (  3,  1, 10) (  3,  1,  6) (  3,  2,  1) (  3,  2, 10) (  3,  1,  1)
     0.7702        0.4622        0.1351        0.7003E-01   -0.4700E-01
  (  3, 10,  1) (  3,  9,  3) (  2,  1,  8) (  2, 10,  1) (  2, 10, 10)
     0.7679E-01    0.1347E-01   -0.7498E-02   -0.3888E-02   -0.2648E-02
  (  2,  6,  1) (  2,  1,  2) (  3,  8,  4) (  3,  9,  7) (  3,  9,  7)
    -0.2194E-02   -0.1820E-02   -0.1358E-02   -0.7517E-03   -0.4808E-03
  (  2,  5,  1) (  3,  9,  7) (  3,  8,  3) (  3,  9,  7) (  3,  9,  7)
    -0.2251E-03   -0.3304E-03   -0.2607E-03   -0.1362E-03   -0.9394E-04
  (  3, 10, 10) (  3,  9,  7) (  3,  8,  4) (  3,  9,  7) (  3,  9,  7)


 OUTPUT CONTROL FOR STRESS PERIOD   14   TIME STEP   5
    SAVE HEAD FOR ALL LAYERS

 HEAD WILL BE SAVED ON UNIT   21 AT END OF TIME STEP   5, STRESS PERIOD   14
 
 SOLVING FOR HEAD 
    26 ITERATIONS FOR TIME STEP   6 IN STRESS PERIOD   14

 MAXIMUM HEAD CHANGE FOR EACH ITERATION:

    HEAD CHANGE   HEAD CHANGE   HEAD CHANGE   HEAD CHANGE   HEAD CHANGE
  LAYER,ROW,COL LAYER,ROW,COL LAYER,ROW,COL LAYER,ROW,COL LAYER,ROW,COL
 ----------------------------------------------------------------------
     0.4140        0.7881        0.5443        -1.189        -1.202    
  (  3,  1,  6) (  3,  1, 10) (  3,  1,  1) (  3,  1, 10) (  3,  1,  1)
     0.5257        0.3116        0.8585E-01    0.2859E-01   -0.2749E-01
  (  3,  1, 10) (  3,  2,  2) (  2,  1,  9) (  2, 10,  1) (  2, 10, 10)
     0.2766E-01   -0.1236E-01   -0.1008E-01   -0.5133E-02   -0.3133E-02
  (  2,  7,  1) (  3,  2,  7) (  3,  3,  6) (  3,  3,  6) (  3,  3,  6)
    -0.2666E-02   -0.2092E-02   -0.1782E-02   -0.8994E-03   -0.5713E-03
  (  2,  7,  1) (  3,  3,  6) (  3,  3,  6) (  3,  3,  6) (  3,  3,  6)
    -0.4221E-03   -0.3748E-03   -0.3134E-03   -0.1672E-03   -0.1015E-03
  (  2,  8,  1) (  3,  3,  6) (  3,  3,  6) (  3,  3,  6) (  3,  3,  6)
    -0.4780E-04
  (  2,  8,  1)


 OUTPUT CONTROL FOR STRESS PERIOD   14   TIME STEP   6
    PRINT BUDGET
    PRINT HEAD FOR ALL LAYERS
    SAVE HEAD FOR ALL LAYERS
    SAVE DRAWDOWN FOR ALL LAYERS
1
              HEAD IN LAYER   1 AT END OF TIME STEP   6 IN STRESS PERIOD   14
  ---------------------------------------------------------------------------

           1       2       3       4       5       6       7       8       9      10
 ...................................................................................
   1    21.18   20.83   20.16   19.74   19.54   19.54   19.74   20.16   20.82   21.17
   2    20.15   19.65   19.22   18.93   18.77   18.77   18.92   19.22   19.64   20.14
   3    18.68   18.18   17.81   17.57   17.44   17.44   17.56   17.80   18.17   18.67
   4    16.67   16.24   15.94   15.75   15.65   15.65   15.74   15.93   16.23   16.66
   5    13.82   13.74   13.63   13.55   13.51   13.50   13.55   13.63   13.73   13.82
   6    11.30   11.27   11.23   11.20   11.18   11.17   11.19   11.23   11.27   11.29
   7     8.86    8.84    8.80    8.77    8.74    8.74    8.76    8.80    8.83    8.85
   8     6.48    6.43    6.34    6.25    6.19    6.19    6.25    6.34    6.42    6.48
   9     4.29    4.13    3.85    3.53    3.40    3.40    3.53    3.85    4.13    4.29
  10     2.71    2.32    1.46    0.00    0.00    0.00    0.00    1.46    2.31    2.71
1
              HEAD IN LAYER   2 AT END OF TIME STEP   6 IN STRESS PERIOD   14
  ---------------------------------------------------------------------------

           1       2       3       4       5       6       7       8       9      10
 ...................................................................................
   1    -0.62   -0.60   -0.60   -0.60   -0.61   -0.63   -0.65   -0.67   -0.70   -0.74
   2    -0.74    0.45    0.19   -0.29   -0.78   -1.15   -1.12   -0.79   -0.47   -0.93
   3    -0.91   -0.15   -0.61   -1.41   -2.57   -4.14   -3.75   -2.42   -1.50   -1.14
   4    -1.11   -0.57   -0.93   -1.52   -2.27   -3.12   -2.97   -2.26   -1.66   -1.35
   5    -1.34   -0.94   -1.09   -1.36   -1.64   -1.86   -1.89   -1.75   -1.60   -1.57
   6    -1.59   -1.30   -1.35   -1.46   -1.58   -1.66   -1.69   -1.68   -1.67   -1.79
   7    -1.85   -1.77   -1.81   -1.87   -1.92   -1.97   -1.98   -1.98   -1.97   -2.01
   8    -2.12   -2.38   -2.48   -2.55   -2.60   -2.62   -2.61   -2.58   -2.50   -2.24
   9    -2.37   -3.08   -3.32   -3.48   -3.56   -3.57   -3.51   -3.37   -3.15   -2.45
  10    -2.61   -2.66   -2.70   -2.74   -2.76   -2.76   -2.75   -2.73   -2.69   -2.65
1
              HEAD IN LAYER   3 AT END OF TIME STEP   6 IN STRESS PERIOD   14
  ---------------------------------------------------------------------------

           1       2       3       4       5       6       7       8       9      10
 ...................................................................................
   1   -17.93  -18.09  -18.40  -18.81  -19.24  -19.59  -19.74  -19.73  -19.66  -19.60
   2   -18.03  -18.28  -18.78  -19.51  -20.37  -21.14  -21.21  -20.81  -20.40  -20.16
   3   -17.86  -18.24  -19.06  -20.45  -22.68  -26.28  -25.42  -22.72  -21.25  -20.59
   4   -16.88  -17.19  -17.84  -18.85  -20.27  -22.13  -21.86  -20.51  -19.63  -19.20
   5   -15.34  -15.51  -15.85  -16.31  -16.84  -17.29  -17.37  -17.18  -16.97  -16.83
   6   -13.73  -13.81  -13.97  -14.17  -14.38  -14.55  -14.63  -14.64  -14.61  -14.59
   7   -12.35  -12.38  -12.45  -12.54  -12.63  -12.72  -12.77  -12.80  -12.81  -12.82
   8   -11.29  -11.31  -11.34  -11.39  -11.43  -11.48  -11.51  -11.53  -11.55  -11.55
   9   -10.60  -10.61  -10.63  -10.65  -10.67  -10.70  -10.72  -10.73  -10.74  -10.75
  10   -10.25  -10.26  -10.27  -10.28  -10.30  -10.32  -10.33  -10.34  -10.35  -10.36

 HEAD WILL BE SAVED ON UNIT   21 AT END OF TIME STEP   6, STRESS PERIOD   14

 DRAWDOWN WILL BE SAVED ON UNIT   22 AT END OF TIME STEP   6, STRESS PERIOD   14
1
  VOLUMETRIC BUDGET FOR ENTIRE MODEL AT END OF TIME STEP  6 IN STRESS PERIOD  14
  ------------------------------------------------------------------------------

     CUMULATIVE VOLUMES      L**3       RATES FOR THIS TIME STEP      L**3/T
     ------------------                 ------------------------

           IN:                                      IN:
           ---                                      ---
             STORAGE =    23386054.0000               STORAGE =        4104.5996
       CONSTANT HEAD =      129191.8438         CONSTANT HEAD =          66.0128
               WELLS =   142497040.0000                 WELLS =       30000.0000
    INST. IB STORAGE =    33446140.0000      INST. IB STORAGE =        5408.6528
    DELAY IB STORAGE =    73864576.0000      DELAY IB STORAGE =       16304.6670

            TOTAL IN =   273323008.0000              TOTAL IN =       55883.9336

          OUT:                                     OUT:
          ----                                     ----
             STORAGE =           0.0000               STORAGE =           0.0000
       CONSTANT HEAD =   130856312.0000         CONSTANT HEAD =       25884.0039
               WELLS =   142467040.0000                 WELLS =       30000.0000
    INST. IB STORAGE =           0.0000      INST. IB STORAGE =           0.0000
    DELAY IB STORAGE =          39.8223      DELAY IB STORAGE =           0.0000

           TOTAL OUT =   273323392.0000             TOTAL OUT =       55884.0039

            IN - OUT =        -384.0000              IN - OUT =      -7.0313E-02

 PERCENT DISCREPANCY =           0.00     PERCENT DISCREPANCY =           0.00






          TIME SUMMARY AT END OF TIME STEP   6 IN STRESS PERIOD   14
                    SECONDS     MINUTES      HOURS       DAYS        YEARS
                    -----------------------------------------------------------
   TIME STEP LENGTH 9.18681E+06 1.53113E+05  2551.9      106.33     0.29111    
 STRESS PERIOD TIME 3.15619E+07 5.26032E+05  8767.2      365.30      1.0001    
         TOTAL TIME 4.10391E+08 6.83986E+06 1.13998E+05  4749.9      13.005    
1

                               VOLUMETRIC BUDGET FOR SYSTEMS OF DELAY INTERBEDS
                                          AT END OF TIME STEP  6 IN STRESS PERIOD 14

          |   C U M U L A T I V E   V O L U M E S   L**3           | R A T E S   F O R  T H I S  T I M E  S T E P   L**3/T  |
   SYSTEM |    CHANGE IN     BOUNDARY                    PERCENT   |    CHANGE IN     BOUNDARY                    PERCENT   |
   NUMBER |     STORAGE        FLOW           SUM      DISCREPANCY |     STORAGE        FLOW           SUM      DISCREPANCY |
  --------|--------------------------------------------------------|--------------------------------------------------------|
      1     58047.        -58047.       -0.78125E-02   -0.13459E-04     10.156        -10.156       -0.95367E-06   -0.93904E-05
      2    0.73807E+08   -0.73807E+08     0.0000         0.0000         16295.        -16295.         0.0000         0.0000    
  --------|--------------------------------------------------------|--------------------------------------------------------|
 TOTALS:    0.73865E+08   -0.73865E+08     0.0000         0.0000         16305.        -16305.         0.0000         0.0000    
1
                            STRESS PERIOD NO.   15, LENGTH =   365.3000    
                            -----------------------------------------------

                              NUMBER OF TIME STEPS =     6

                               MULTIPLIER FOR DELT =     1.300

                            INITIAL TIME STEP SIZE =   28.63744    

 REUSING NON-PARAMETER WELLS FROM LAST STRESS PERIOD

     14 WELLS
 
 SOLVING FOR HEAD 

    35 ITERATIONS FOR TIME STEP   1 IN STRESS PERIOD   15

 OUTPUT CONTROL FOR STRESS PERIOD   15   TIME STEP   1
    SAVE HEAD FOR ALL LAYERS

 HEAD WILL BE SAVED ON UNIT   21 AT END OF TIME STEP   1, STRESS PERIOD   15
 
 SOLVING FOR HEAD 
    35 ITERATIONS FOR TIME STEP   2 IN STRESS PERIOD   15

 OUTPUT CONTROL FOR STRESS PERIOD   15   TIME STEP   2
    SAVE HEAD FOR ALL LAYERS

 HEAD WILL BE SAVED ON UNIT   21 AT END OF TIME STEP   2, STRESS PERIOD   15
 
 SOLVING FOR HEAD 
    33 ITERATIONS FOR TIME STEP   3 IN STRESS PERIOD   15

 OUTPUT CONTROL FOR STRESS PERIOD   15   TIME STEP   3
    SAVE HEAD FOR ALL LAYERS

 HEAD WILL BE SAVED ON UNIT   21 AT END OF TIME STEP   3, STRESS PERIOD   15
 
 SOLVING FOR HEAD 
    29 ITERATIONS FOR TIME STEP   4 IN STRESS PERIOD   15

 OUTPUT CONTROL FOR STRESS PERIOD   15   TIME STEP   4
    SAVE HEAD FOR ALL LAYERS

 HEAD WILL BE SAVED ON UNIT   21 AT END OF TIME STEP   4, STRESS PERIOD   15
 
 SOLVING FOR HEAD 
    25 ITERATIONS FOR TIME STEP   5 IN STRESS PERIOD   15

 MAXIMUM HEAD CHANGE FOR EACH ITERATION:

    HEAD CHANGE   HEAD CHANGE   HEAD CHANGE   HEAD CHANGE   HEAD CHANGE
  LAYER,ROW,COL LAYER,ROW,COL LAYER,ROW,COL LAYER,ROW,COL LAYER,ROW,COL
 ----------------------------------------------------------------------
     0.7290         1.310         1.034        -1.024        -2.677    
  (  3,  1,  1) (  3,  1, 10) (  3,  3,  5) (  3,  1, 10) (  3,  1,  1)
     0.7164        0.4309        0.1339        0.6852E-01   -0.4591E-01
  (  3, 10,  1) (  3,  9,  3) (  2,  1,  8) (  2, 10,  1) (  2, 10, 10)
     0.7523E-01    0.1244E-01   -0.6816E-02   -0.3570E-02   -0.2413E-02
  (  2,  6,  1) (  2,  1,  2) (  3,  8,  4) (  3,  8,  1) (  3,  8,  2)
    -0.2136E-02   -0.1626E-02   -0.1248E-02   -0.6851E-03   -0.4311E-03
  (  2,  6,  1) (  3,  8,  3) (  3,  8,  3) (  3,  8,  3) (  3,  8,  2)
    -0.2071E-03   -0.3026E-03   -0.2386E-03   -0.1235E-03   -0.8018E-04
  (  3, 10, 10) (  3,  8,  2) (  3,  8,  3) (  3,  8,  3) (  3,  8,  2)


 OUTPUT CONTROL FOR STRESS PERIOD   15   TIME STEP   5
    SAVE HEAD FOR ALL LAYERS

 HEAD WILL BE SAVED ON UNIT   21 AT END OF TIME STEP   5, STRESS PERIOD   15
 
 SOLVING FOR HEAD 
    25 ITERATIONS FOR TIME STEP   6 IN STRESS PERIOD   15

 MAXIMUM HEAD CHANGE FOR EACH ITERATION:

    HEAD CHANGE   HEAD CHANGE   HEAD CHANGE   HEAD CHANGE   HEAD CHANGE
  LAYER,ROW,COL LAYER,ROW,COL LAYER,ROW,COL LAYER,ROW,COL LAYER,ROW,COL
 ----------------------------------------------------------------------
     0.3892        0.7782        0.5211        -1.155        -1.180    
  (  3,  1,  4) (  3,  1, 10) (  3,  2,  1) (  3,  1, 10) (  3,  1,  1)
     0.5133        0.3091        0.8490E-01    0.2878E-01   -0.2741E-01
  (  3,  1, 10) (  3,  2,  2) (  2,  1,  9) (  2, 10,  1) (  2, 10, 10)
     0.2764E-01   -0.1210E-01   -0.9822E-02   -0.4980E-02   -0.3044E-02
  (  2,  7,  1) (  3,  2,  7) (  3,  3,  6) (  3,  3,  6) (  3,  3,  6)
    -0.2603E-02   -0.2031E-02   -0.1727E-02   -0.8712E-03   -0.5492E-03
  (  2,  7,  1) (  3,  3,  6) (  3,  3,  6) (  3,  3,  6) (  3,  3,  6)
    -0.4119E-03   -0.3608E-03   -0.3031E-03   -0.1594E-03   -0.9796E-04
  (  2,  8,  1) (  3,  3,  6) (  3,  3,  6) (  3,  3,  6) (  3,  3,  6)


 OUTPUT CONTROL FOR STRESS PERIOD   15   TIME STEP   6
    PRINT BUDGET
    PRINT HEAD FOR ALL LAYERS
    SAVE HEAD FOR ALL LAYERS
    SAVE DRAWDOWN FOR ALL LAYERS
1
              HEAD IN LAYER   1 AT END OF TIME STEP   6 IN STRESS PERIOD   15
  ---------------------------------------------------------------------------

           1       2       3       4       5       6       7       8       9      10
 ...................................................................................
   1    21.07   20.72   20.06   19.64   19.43   19.43   19.63   20.05   20.72   21.06
   2    20.05   19.55   19.12   18.82   18.67   18.67   18.82   19.11   19.54   20.04
   3    18.58   18.08   17.71   17.47   17.34   17.34   17.46   17.70   18.07   18.57
   4    16.58   16.14   15.84   15.65   15.56   15.55   15.65   15.83   16.13   16.57
   5    13.74   13.65   13.55   13.46   13.42   13.42   13.46   13.54   13.64   13.73
   6    11.22   11.20   11.16   11.12   11.10   11.10   11.12   11.15   11.19   11.22
   7     8.79    8.77    8.74    8.70    8.68    8.68    8.70    8.73    8.77    8.79
   8     6.43    6.38    6.29    6.20    6.15    6.15    6.20    6.29    6.37    6.43
   9     4.25    4.10    3.82    3.50    3.37    3.37    3.50    3.82    4.09    4.25
  10     2.69    2.30    1.45    0.00    0.00    0.00    0.00    1.45    2.29    2.68
1
              HEAD IN LAYER   2 AT END OF TIME STEP   6 IN STRESS PERIOD   15
  ---------------------------------------------------------------------------

           1       2       3       4       5       6       7       8       9      10
 ...................................................................................
   1    -0.95   -0.94   -0.93   -0.94   -0.95   -0.97   -0.99   -1.01   -1.04   -1.08
   2    -1.07    0.08   -0.19   -0.67   -1.16   -1.53   -1.50   -1.17   -0.85   -1.26
   3    -1.23   -0.51   -0.97   -1.78   -2.94   -4.51   -4.11   -2.79   -1.86   -1.46
   4    -1.43   -0.91   -1.28   -1.87   -2.62   -3.47   -3.32   -2.61   -2.01   -1.67
   5    -1.65   -1.26   -1.41   -1.68   -1.97   -2.19   -2.21   -2.08   -1.92   -1.88
   6    -1.89   -1.59   -1.64   -1.76   -1.87   -1.96   -1.99   -1.98   -1.97   -2.09
   7    -2.14   -2.04   -2.08   -2.14   -2.20   -2.24   -2.25   -2.25   -2.25   -2.30
   8    -2.40   -2.63   -2.73   -2.80   -2.84   -2.87   -2.86   -2.82   -2.75   -2.52
   9    -2.64   -3.32   -3.54   -3.71   -3.78   -3.79   -3.74   -3.60   -3.39   -2.73
  10    -2.87   -2.92   -2.97   -3.00   -3.02   -3.02   -3.01   -2.99   -2.96   -2.92
1
              HEAD IN LAYER   3 AT END OF TIME STEP   6 IN STRESS PERIOD   15
  ---------------------------------------------------------------------------

           1       2       3       4       5       6       7       8       9      10
 ...................................................................................
   1   -18.58  -18.75  -19.06  -19.47  -19.90  -20.25  -20.41  -20.40  -20.32  -20.26
   2   -18.67  -18.93  -19.43  -20.16  -21.02  -21.79  -21.87  -21.46  -21.05  -20.82
   3   -18.48  -18.87  -19.69  -21.08  -23.31  -26.92  -26.06  -23.35  -21.88  -21.23
   4   -17.47  -17.79  -18.43  -19.44  -20.87  -22.73  -22.46  -21.12  -20.24  -19.81
   5   -15.90  -16.07  -16.40  -16.87  -17.40  -17.85  -17.93  -17.75  -17.53  -17.40
   6   -14.25  -14.33  -14.48  -14.68  -14.89  -15.07  -15.15  -15.16  -15.13  -15.11
   7   -12.82  -12.86  -12.93  -13.02  -13.11  -13.19  -13.25  -13.28  -13.29  -13.30
   8   -11.74  -11.75  -11.79  -11.83  -11.88  -11.92  -11.95  -11.98  -11.99  -12.00
   9   -11.01  -11.03  -11.04  -11.07  -11.09  -11.12  -11.14  -11.15  -11.16  -11.17
  10   -10.66  -10.66  -10.67  -10.69  -10.71  -10.72  -10.74  -10.75  -10.76  -10.76

 HEAD WILL BE SAVED ON UNIT   21 AT END OF TIME STEP   6, STRESS PERIOD   15

 DRAWDOWN WILL BE SAVED ON UNIT   22 AT END OF TIME STEP   6, STRESS PERIOD   15
1
  VOLUMETRIC BUDGET FOR ENTIRE MODEL AT END OF TIME STEP  6 IN STRESS PERIOD  15
  ------------------------------------------------------------------------------

     CUMULATIVE VOLUMES      L**3       RATES FOR THIS TIME STEP      L**3/T
     ------------------                 ------------------------

           IN:                                      IN:
           ---                                      ---
             STORAGE =    24866012.0000               STORAGE =        4017.0891
       CONSTANT HEAD =      154682.9688         CONSTANT HEAD =          72.3053
               WELLS =   153456032.0000                 WELLS =       30000.0000
    INST. IB STORAGE =    35418160.0000      INST. IB STORAGE =        5374.4551
    DELAY IB STORAGE =    79794096.0000      DELAY IB STORAGE =       16199.4678

            TOTAL IN =   293688992.0000              TOTAL IN =       55663.3164

          OUT:                                     OUT:
          ----                                     ----
             STORAGE =           0.0000               STORAGE =           0.0000
       CONSTANT HEAD =   140263312.0000         CONSTANT HEAD =       25663.3320
               WELLS =   153426032.0000                 WELLS =       30000.0000
    INST. IB STORAGE =           0.0000      INST. IB STORAGE =           0.0000
    DELAY IB STORAGE =          39.8223      DELAY IB STORAGE =           0.0000

           TOTAL OUT =   293689376.0000             TOTAL OUT =       55663.3320

            IN - OUT =        -384.0000              IN - OUT =      -1.5625E-02

 PERCENT DISCREPANCY =           0.00     PERCENT DISCREPANCY =           0.00






          TIME SUMMARY AT END OF TIME STEP   6 IN STRESS PERIOD   15
                    SECONDS     MINUTES      HOURS       DAYS        YEARS
                    -----------------------------------------------------------
   TIME STEP LENGTH 9.18681E+06 1.53113E+05  2551.9      106.33     0.29111    
 STRESS PERIOD TIME 3.15619E+07 5.26032E+05  8767.2      365.30      1.0001    
         TOTAL TIME 4.41953E+08 7.36589E+06 1.22765E+05  5115.2      14.005    
1

                               VOLUMETRIC BUDGET FOR SYSTEMS OF DELAY INTERBEDS
                                          AT END OF TIME STEP  6 IN STRESS PERIOD 15

          |   C U M U L A T I V E   V O L U M E S   L**3           | R A T E S   F O R  T H I S  T I M E  S T E P   L**3/T  |
   SYSTEM |    CHANGE IN     BOUNDARY                    PERCENT   |    CHANGE IN     BOUNDARY                    PERCENT   |
   NUMBER |     STORAGE        FLOW           SUM      DISCREPANCY |     STORAGE        FLOW           SUM      DISCREPANCY |
  --------|--------------------------------------------------------|--------------------------------------------------------|
      1     61965.        -61965.       -0.78125E-02   -0.12608E-04     9.9321        -9.9321        0.19073E-05    0.19204E-04
      2    0.79732E+08   -0.79732E+08     0.0000         0.0000         16190.        -16190.        0.19531E-02    0.12064E-04
  --------|--------------------------------------------------------|--------------------------------------------------------|
 TOTALS:    0.79794E+08   -0.79794E+08     0.0000         0.0000         16199.        -16199.        0.19531E-02    0.12057E-04
1
                            STRESS PERIOD NO.   16, LENGTH =   365.3000    
                            -----------------------------------------------

                              NUMBER OF TIME STEPS =     6

                               MULTIPLIER FOR DELT =     1.300

                            INITIAL TIME STEP SIZE =   28.63744    

 REUSING NON-PARAMETER WELLS FROM LAST STRESS PERIOD

     14 WELLS
 
 SOLVING FOR HEAD 

    39 ITERATIONS FOR TIME STEP   1 IN STRESS PERIOD   16

 OUTPUT CONTROL FOR STRESS PERIOD   16   TIME STEP   1
    SAVE HEAD FOR ALL LAYERS

 HEAD WILL BE SAVED ON UNIT   21 AT END OF TIME STEP   1, STRESS PERIOD   16
 
 SOLVING FOR HEAD 
    35 ITERATIONS FOR TIME STEP   2 IN STRESS PERIOD   16

 OUTPUT CONTROL FOR STRESS PERIOD   16   TIME STEP   2
    SAVE HEAD FOR ALL LAYERS

 HEAD WILL BE SAVED ON UNIT   21 AT END OF TIME STEP   2, STRESS PERIOD   16
 
 SOLVING FOR HEAD 
    32 ITERATIONS FOR TIME STEP   3 IN STRESS PERIOD   16

 OUTPUT CONTROL FOR STRESS PERIOD   16   TIME STEP   3
    SAVE HEAD FOR ALL LAYERS

 HEAD WILL BE SAVED ON UNIT   21 AT END OF TIME STEP   3, STRESS PERIOD   16
 
 SOLVING FOR HEAD 
    29 ITERATIONS FOR TIME STEP   4 IN STRESS PERIOD   16

 OUTPUT CONTROL FOR STRESS PERIOD   16   TIME STEP   4
    SAVE HEAD FOR ALL LAYERS

 HEAD WILL BE SAVED ON UNIT   21 AT END OF TIME STEP   4, STRESS PERIOD   16
 
 SOLVING FOR HEAD 
    25 ITERATIONS FOR TIME STEP   5 IN STRESS PERIOD   16

 MAXIMUM HEAD CHANGE FOR EACH ITERATION:

    HEAD CHANGE   HEAD CHANGE   HEAD CHANGE   HEAD CHANGE   HEAD CHANGE
  LAYER,ROW,COL LAYER,ROW,COL LAYER,ROW,COL LAYER,ROW,COL LAYER,ROW,COL
 ----------------------------------------------------------------------
     0.6527         1.102         1.130       -0.9650        -2.670    
  (  3,  1, 10) (  3,  1,  7) (  3,  2,  1) (  3,  2, 10) (  3,  1,  1)
     0.7388        0.4443        0.1357        0.7027E-01   -0.4719E-01
  (  3, 10,  1) (  3,  9,  6) (  2,  1,  8) (  2, 10,  1) (  2, 10, 10)
     0.7623E-01    0.1323E-01   -0.7225E-02   -0.3813E-02   -0.2564E-02
  (  2,  6,  1) (  2,  1,  2) (  3,  8,  3) (  3,  8,  1) (  3,  8,  2)
    -0.2170E-02   -0.1731E-02   -0.1335E-02   -0.7278E-03   -0.4635E-03
  (  2,  6,  1) (  3,  8,  2) (  3,  8,  3) (  3,  8,  3) (  3,  8,  2)
    -0.2106E-03   -0.3224E-03   -0.2545E-03   -0.1333E-03   -0.9110E-04
  (  3, 10, 10) (  3,  8,  2) (  3,  8,  3) (  3,  8,  2) (  3,  8,  3)


 OUTPUT CONTROL FOR STRESS PERIOD   16   TIME STEP   5
    SAVE HEAD FOR ALL LAYERS

 HEAD WILL BE SAVED ON UNIT   21 AT END OF TIME STEP   5, STRESS PERIOD   16
 
 SOLVING FOR HEAD 
    25 ITERATIONS FOR TIME STEP   6 IN STRESS PERIOD   16

 MAXIMUM HEAD CHANGE FOR EACH ITERATION:

    HEAD CHANGE   HEAD CHANGE   HEAD CHANGE   HEAD CHANGE   HEAD CHANGE
  LAYER,ROW,COL LAYER,ROW,COL LAYER,ROW,COL LAYER,ROW,COL LAYER,ROW,COL
 ----------------------------------------------------------------------
     0.3957        0.7056        0.4725        -1.123        -1.143    
  (  3,  1,  1) (  3,  1, 10) (  3,  3,  5) (  3,  1, 10) (  3,  1,  1)
     0.5100        0.3002        0.8296E-01    0.2776E-01   -0.2689E-01
  (  3,  1, 10) (  3,  2,  2) (  2,  1,  9) (  2, 10,  1) (  2, 10, 10)
     0.2709E-01   -0.1176E-01   -0.9480E-02   -0.4820E-02   -0.2917E-02
  (  2,  7,  1) (  3,  2,  7) (  3,  3,  6) (  3,  2,  7) (  3,  2,  6)
    -0.2570E-02   -0.1948E-02   -0.1661E-02   -0.8288E-03   -0.5242E-03
  (  2,  7,  1) (  3,  3,  6) (  3,  3,  6) (  3,  3,  6) (  3,  3,  6)
    -0.4055E-03   -0.3455E-03   -0.2873E-03   -0.1506E-03   -0.9054E-04
  (  2,  8,  1) (  3,  2,  7) (  3,  3,  6) (  3,  3,  6) (  3,  3,  6)


 OUTPUT CONTROL FOR STRESS PERIOD   16   TIME STEP   6
    PRINT BUDGET
    PRINT HEAD FOR ALL LAYERS
    SAVE HEAD FOR ALL LAYERS
    SAVE DRAWDOWN FOR ALL LAYERS
1
              HEAD IN LAYER   1 AT END OF TIME STEP   6 IN STRESS PERIOD   16
  ---------------------------------------------------------------------------

           1       2       3       4       5       6       7       8       9      10
 ...................................................................................
   1    20.97   20.62   19.95   19.53   19.33   19.33   19.53   19.95   20.61   20.96
   2    19.95   19.44   19.02   18.72   18.57   18.56   18.71   19.01   19.44   19.94
   3    18.48   17.99   17.62   17.37   17.24   17.24   17.36   17.61   17.98   18.47
   4    16.48   16.05   15.75   15.56   15.46   15.46   15.55   15.74   16.04   16.47
   5    13.65   13.56   13.46   13.38   13.33   13.33   13.37   13.45   13.56   13.64
   6    11.15   11.12   11.08   11.05   11.02   11.02   11.04   11.08   11.12   11.14
   7     8.73    8.71    8.67    8.64    8.62    8.62    8.64    8.67    8.71    8.73
   8     6.38    6.33    6.24    6.15    6.10    6.10    6.15    6.24    6.33    6.38
   9     4.22    4.06    3.79    3.47    3.34    3.34    3.47    3.78    4.06    4.22
  10     2.66    2.28    1.44    0.00    0.00    0.00    0.00    1.44    2.27    2.66
1
              HEAD IN LAYER   2 AT END OF TIME STEP   6 IN STRESS PERIOD   16
  ---------------------------------------------------------------------------

           1       2       3       4       5       6       7       8       9      10
 ...................................................................................
   1    -1.28   -1.27   -1.27   -1.27   -1.29   -1.30   -1.32   -1.35   -1.37   -1.41
   2    -1.39   -0.28   -0.55   -1.04   -1.53   -1.90   -1.87   -1.54   -1.21   -1.58
   3    -1.55   -0.86   -1.33   -2.14   -3.30   -4.87   -4.48   -3.15   -2.22   -1.78
   4    -1.74   -1.24   -1.62   -2.21   -2.97   -3.81   -3.67   -2.95   -2.35   -1.98
   5    -1.96   -1.57   -1.73   -2.00   -2.29   -2.51   -2.53   -2.40   -2.24   -2.18
   6    -2.19   -1.89   -1.94   -2.05   -2.17   -2.26   -2.29   -2.28   -2.26   -2.38
   7    -2.43   -2.31   -2.35   -2.41   -2.47   -2.51   -2.53   -2.52   -2.52   -2.59
   8    -2.67   -2.89   -2.97   -3.04   -3.09   -3.11   -3.11   -3.07   -3.01   -2.80
   9    -2.91   -3.55   -3.77   -3.93   -4.01   -4.02   -3.97   -3.83   -3.62   -3.00
  10    -3.14   -3.19   -3.23   -3.26   -3.28   -3.28   -3.28   -3.25   -3.22   -3.18
1
              HEAD IN LAYER   3 AT END OF TIME STEP   6 IN STRESS PERIOD   16
  ---------------------------------------------------------------------------

           1       2       3       4       5       6       7       8       9      10
 ...................................................................................
   1   -19.22  -19.39  -19.70  -20.12  -20.55  -20.90  -21.06  -21.05  -20.97  -20.91
   2   -19.30  -19.56  -20.07  -20.80  -21.66  -22.43  -22.51  -22.11  -21.70  -21.46
   3   -19.09  -19.48  -20.31  -21.70  -23.93  -27.54  -26.68  -23.98  -22.51  -21.85
   4   -18.06  -18.37  -19.02  -20.03  -21.46  -23.33  -23.06  -21.71  -20.83  -20.40
   5   -16.45  -16.62  -16.96  -17.42  -17.95  -18.40  -18.49  -18.31  -18.09  -17.96
   6   -14.76  -14.84  -15.00  -15.20  -15.41  -15.58  -15.67  -15.68  -15.65  -15.63
   7   -13.30  -13.34  -13.41  -13.50  -13.59  -13.67  -13.73  -13.76  -13.77  -13.78
   8   -12.18  -12.20  -12.23  -12.28  -12.32  -12.37  -12.40  -12.43  -12.44  -12.45
   9   -11.44  -11.45  -11.47  -11.49  -11.52  -11.54  -11.57  -11.58  -11.59  -11.60
  10   -11.07  -11.08  -11.09  -11.10  -11.12  -11.14  -11.15  -11.17  -11.18  -11.18

 HEAD WILL BE SAVED ON UNIT   21 AT END OF TIME STEP   6, STRESS PERIOD   16

 DRAWDOWN WILL BE SAVED ON UNIT   22 AT END OF TIME STEP   6, STRESS PERIOD   16
1
  VOLUMETRIC BUDGET FOR ENTIRE MODEL AT END OF TIME STEP  6 IN STRESS PERIOD  16
  ------------------------------------------------------------------------------

     CUMULATIVE VOLUMES      L**3       RATES FOR THIS TIME STEP      L**3/T
     ------------------                 ------------------------

           IN:                                      IN:
           ---                                      ---
             STORAGE =    26314786.0000               STORAGE =        3933.2097
       CONSTANT HEAD =      182474.0469         CONSTANT HEAD =          78.6040
               WELLS =   164415024.0000                 WELLS =       30000.0000
    INST. IB STORAGE =    37376396.0000      INST. IB STORAGE =        5339.5610
    DELAY IB STORAGE =    85686632.0000      DELAY IB STORAGE =       16095.5723

            TOTAL IN =   313975328.0000              TOTAL IN =       55446.9453

          OUT:                                     OUT:
          ----                                     ----
             STORAGE =           0.0000               STORAGE =           0.0000
       CONSTANT HEAD =   149590656.0000         CONSTANT HEAD =       25446.9863
               WELLS =   164385024.0000                 WELLS =       30000.0000
    INST. IB STORAGE =           0.0000      INST. IB STORAGE =           0.0000
    DELAY IB STORAGE =          39.8223      DELAY IB STORAGE =           0.0000

           TOTAL OUT =   313975712.0000             TOTAL OUT =       55446.9844

            IN - OUT =        -384.0000              IN - OUT =      -3.9062E-02

 PERCENT DISCREPANCY =           0.00     PERCENT DISCREPANCY =           0.00






          TIME SUMMARY AT END OF TIME STEP   6 IN STRESS PERIOD   16
                    SECONDS     MINUTES      HOURS       DAYS        YEARS
                    -----------------------------------------------------------
   TIME STEP LENGTH 9.18681E+06 1.53113E+05  2551.9      106.33     0.29111    
 STRESS PERIOD TIME 3.15619E+07 5.26032E+05  8767.2      365.30      1.0001    
         TOTAL TIME 4.73515E+08 7.89192E+06 1.31532E+05  5480.5      15.005    
1

                               VOLUMETRIC BUDGET FOR SYSTEMS OF DELAY INTERBEDS
                                          AT END OF TIME STEP  6 IN STRESS PERIOD 16

          |   C U M U L A T I V E   V O L U M E S   L**3           | R A T E S   F O R  T H I S  T I M E  S T E P   L**3/T  |
   SYSTEM |    CHANGE IN     BOUNDARY                    PERCENT   |    CHANGE IN     BOUNDARY                    PERCENT   |
   NUMBER |     STORAGE        FLOW           SUM      DISCREPANCY |     STORAGE        FLOW           SUM      DISCREPANCY |
  --------|--------------------------------------------------------|--------------------------------------------------------|
      1     65804.        -65804.       -0.78125E-02   -0.11872E-04     9.6839        -9.6839        0.38147E-05    0.39392E-04
      2    0.85621E+08   -0.85621E+08     0.0000         0.0000         16086.        -16086.       -0.19531E-02   -0.12142E-04
  --------|--------------------------------------------------------|--------------------------------------------------------|
 TOTALS:    0.85687E+08   -0.85687E+08     0.0000         0.0000         16096.        -16096.       -0.19531E-02   -0.12135E-04
1
                            STRESS PERIOD NO.   17, LENGTH =   365.3000    
                            -----------------------------------------------

                              NUMBER OF TIME STEPS =     6

                               MULTIPLIER FOR DELT =     1.300

                            INITIAL TIME STEP SIZE =   28.63744    

 REUSING NON-PARAMETER WELLS FROM LAST STRESS PERIOD

     14 WELLS
 
 SOLVING FOR HEAD 

    38 ITERATIONS FOR TIME STEP   1 IN STRESS PERIOD   17

 OUTPUT CONTROL FOR STRESS PERIOD   17   TIME STEP   1
    SAVE HEAD FOR ALL LAYERS

 HEAD WILL BE SAVED ON UNIT   21 AT END OF TIME STEP   1, STRESS PERIOD   17
 
 SOLVING FOR HEAD 
    35 ITERATIONS FOR TIME STEP   2 IN STRESS PERIOD   17

 OUTPUT CONTROL FOR STRESS PERIOD   17   TIME STEP   2
    SAVE HEAD FOR ALL LAYERS

 HEAD WILL BE SAVED ON UNIT   21 AT END OF TIME STEP   2, STRESS PERIOD   17
 
 SOLVING FOR HEAD 
    31 ITERATIONS FOR TIME STEP   3 IN STRESS PERIOD   17

 OUTPUT CONTROL FOR STRESS PERIOD   17   TIME STEP   3
    SAVE HEAD FOR ALL LAYERS

 HEAD WILL BE SAVED ON UNIT   21 AT END OF TIME STEP   3, STRESS PERIOD   17
 
 SOLVING FOR HEAD 
    29 ITERATIONS FOR TIME STEP   4 IN STRESS PERIOD   17

 OUTPUT CONTROL FOR STRESS PERIOD   17   TIME STEP   4
    SAVE HEAD FOR ALL LAYERS

 HEAD WILL BE SAVED ON UNIT   21 AT END OF TIME STEP   4, STRESS PERIOD   17
 
 SOLVING FOR HEAD 
    25 ITERATIONS FOR TIME STEP   5 IN STRESS PERIOD   17

 MAXIMUM HEAD CHANGE FOR EACH ITERATION:

    HEAD CHANGE   HEAD CHANGE   HEAD CHANGE   HEAD CHANGE   HEAD CHANGE
  LAYER,ROW,COL LAYER,ROW,COL LAYER,ROW,COL LAYER,ROW,COL LAYER,ROW,COL
 ----------------------------------------------------------------------
     0.6820         1.262         1.024       -0.9443        -2.638    
  (  3,  1,  1) (  3,  1, 10) (  3,  2,  1) (  3,  1, 10) (  3,  1,  1)
     0.7246        0.4348        0.1349        0.6941E-01   -0.4642E-01
  (  3, 10,  1) (  3,  9,  3) (  2,  1,  8) (  2, 10,  1) (  2, 10, 10)
     0.7664E-01    0.1305E-01   -0.6856E-02   -0.3583E-02   -0.2429E-02
  (  2,  6,  1) (  2,  1,  2) (  3,  8,  4) (  3,  7,  3) (  3,  9,  5)
    -0.2137E-02   -0.1627E-02   -0.1253E-02   -0.6876E-03   -0.4386E-03
  (  2,  6,  1) (  3,  9,  5) (  3,  8,  3) (  3,  9,  5) (  3,  7,  4)
    -0.2088E-03   -0.3039E-03   -0.2410E-03   -0.1281E-03   -0.8443E-04
  (  3, 10, 10) (  3,  8,  3) (  3,  7,  4) (  3,  7,  4) (  3,  9,  6)


 OUTPUT CONTROL FOR STRESS PERIOD   17   TIME STEP   5
    SAVE HEAD FOR ALL LAYERS

 HEAD WILL BE SAVED ON UNIT   21 AT END OF TIME STEP   5, STRESS PERIOD   17
 
 SOLVING FOR HEAD 
    25 ITERATIONS FOR TIME STEP   6 IN STRESS PERIOD   17

 MAXIMUM HEAD CHANGE FOR EACH ITERATION:

    HEAD CHANGE   HEAD CHANGE   HEAD CHANGE   HEAD CHANGE   HEAD CHANGE
  LAYER,ROW,COL LAYER,ROW,COL LAYER,ROW,COL LAYER,ROW,COL LAYER,ROW,COL
 ----------------------------------------------------------------------
     0.3973        0.6032        0.5092        -1.061        -1.161    
  (  3,  1, 10) (  3,  2,  9) (  3,  1,  1) (  3,  1, 10) (  3,  1,  1)
     0.5004        0.2988        0.8240E-01    0.2760E-01   -0.2661E-01
  (  3,  1, 10) (  3,  2,  2) (  2,  1,  9) (  2, 10,  1) (  2, 10, 10)
     0.2650E-01   -0.1153E-01   -0.9296E-02   -0.4712E-02   -0.2856E-02
  (  2,  7,  1) (  3,  2,  7) (  3,  2,  5) (  3,  2,  7) (  3,  2,  6)
    -0.2512E-02   -0.1904E-02   -0.1620E-02   -0.8061E-03   -0.5074E-03
  (  2,  7,  1) (  3,  2,  6) (  3,  3,  6) (  3,  3,  6) (  3,  3,  6)
    -0.4009E-03   -0.3354E-03   -0.2789E-03   -0.1449E-03   -0.8719E-04
  (  2,  8,  1) (  3,  2,  7) (  3,  3,  6) (  3,  3,  6) (  3,  3,  6)


 OUTPUT CONTROL FOR STRESS PERIOD   17   TIME STEP   6
    PRINT BUDGET
    PRINT HEAD FOR ALL LAYERS
    SAVE HEAD FOR ALL LAYERS
    SAVE DRAWDOWN FOR ALL LAYERS
1
              HEAD IN LAYER   1 AT END OF TIME STEP   6 IN STRESS PERIOD   17
  ---------------------------------------------------------------------------

           1       2       3       4       5       6       7       8       9      10
 ...................................................................................
   1    20.87   20.52   19.85   19.43   19.23   19.23   19.43   19.85   20.51   20.86
   2    19.85   19.35   18.92   18.62   18.47   18.46   18.62   18.91   19.34   19.84
   3    18.38   17.89   17.52   17.27   17.15   17.14   17.26   17.51   17.88   18.37
   4    16.39   15.96   15.66   15.47   15.37   15.37   15.46   15.65   15.95   16.38
   5    13.57   13.48   13.38   13.29   13.25   13.25   13.29   13.37   13.47   13.56
   6    11.07   11.05   11.01   10.97   10.95   10.95   10.97   11.00   11.04   11.07
   7     8.67    8.65    8.61    8.58    8.56    8.55    8.58    8.61    8.64    8.67
   8     6.33    6.28    6.19    6.10    6.05    6.05    6.10    6.19    6.28    6.33
   9     4.18    4.03    3.76    3.45    3.32    3.32    3.44    3.75    4.03    4.18
  10     2.64    2.26    1.43    0.00    0.00    0.00    0.00    1.43    2.25    2.64
1
              HEAD IN LAYER   2 AT END OF TIME STEP   6 IN STRESS PERIOD   17
  ---------------------------------------------------------------------------

           1       2       3       4       5       6       7       8       9      10
 ...................................................................................
   1    -1.61   -1.60   -1.60   -1.60   -1.62   -1.63   -1.65   -1.67   -1.70   -1.74
   2    -1.72   -0.64   -0.91   -1.40   -1.89   -2.26   -2.23   -1.90   -1.57   -1.91
   3    -1.87   -1.21   -1.68   -2.49   -3.65   -5.22   -4.83   -3.50   -2.57   -2.10
   4    -2.05   -1.57   -1.95   -2.55   -3.30   -4.15   -4.00   -3.29   -2.68   -2.29
   5    -2.26   -1.89   -2.04   -2.31   -2.60   -2.83   -2.85   -2.72   -2.56   -2.49
   6    -2.48   -2.18   -2.23   -2.35   -2.46   -2.55   -2.58   -2.57   -2.56   -2.68
   7    -2.71   -2.58   -2.62   -2.68   -2.74   -2.78   -2.80   -2.80   -2.80   -2.87
   8    -2.95   -3.14   -3.22   -3.29   -3.34   -3.36   -3.36   -3.32   -3.26   -3.07
   9    -3.19   -3.79   -4.01   -4.17   -4.24   -4.25   -4.20   -4.06   -3.86   -3.27
  10    -3.40   -3.45   -3.49   -3.52   -3.54   -3.55   -3.54   -3.52   -3.49   -3.45
1
              HEAD IN LAYER   3 AT END OF TIME STEP   6 IN STRESS PERIOD   17
  ---------------------------------------------------------------------------

           1       2       3       4       5       6       7       8       9      10
 ...................................................................................
   1   -19.85  -20.02  -20.33  -20.75  -21.18  -21.53  -21.69  -21.68  -21.61  -21.55
   2   -19.92  -20.18  -20.69  -21.42  -22.29  -23.06  -23.14  -22.73  -22.32  -22.09
   3   -19.70  -20.08  -20.91  -22.31  -24.54  -28.15  -27.29  -24.59  -23.12  -22.47
   4   -18.64  -18.95  -19.60  -20.61  -22.04  -23.91  -23.64  -22.30  -21.42  -20.99
   5   -16.99  -17.17  -17.50  -17.97  -18.50  -18.95  -19.04  -18.86  -18.64  -18.51
   6   -15.27  -15.35  -15.51  -15.71  -15.92  -16.10  -16.18  -16.19  -16.17  -16.14
   7   -13.78  -13.82  -13.89  -13.98  -14.07  -14.15  -14.21  -14.24  -14.26  -14.26
   8   -12.63  -12.65  -12.69  -12.73  -12.78  -12.82  -12.85  -12.88  -12.89  -12.90
   9   -11.87  -11.88  -11.90  -11.92  -11.95  -11.98  -12.00  -12.01  -12.02  -12.03
  10   -11.49  -11.50  -11.51  -11.53  -11.54  -11.56  -11.58  -11.59  -11.60  -11.60

 HEAD WILL BE SAVED ON UNIT   21 AT END OF TIME STEP   6, STRESS PERIOD   17

 DRAWDOWN WILL BE SAVED ON UNIT   22 AT END OF TIME STEP   6, STRESS PERIOD   17
1
  VOLUMETRIC BUDGET FOR ENTIRE MODEL AT END OF TIME STEP  6 IN STRESS PERIOD  17
  ------------------------------------------------------------------------------

     CUMULATIVE VOLUMES      L**3       RATES FOR THIS TIME STEP      L**3/T
     ------------------                 ------------------------

           IN:                                      IN:
           ---                                      ---
             STORAGE =    27733646.0000               STORAGE =        3852.6108
       CONSTANT HEAD =      212566.8750         CONSTANT HEAD =          84.9056
               WELLS =   175374016.0000                 WELLS =       30000.0000
    INST. IB STORAGE =    39320764.0000      INST. IB STORAGE =        5300.1763
    DELAY IB STORAGE =    91542592.0000      DELAY IB STORAGE =       15997.0176

            TOTAL IN =   334183584.0000              TOTAL IN =       55234.7109

          OUT:                                     OUT:
          ----                                     ----
             STORAGE =           0.0000               STORAGE =           0.0000
       CONSTANT HEAD =   158839888.0000         CONSTANT HEAD =       25234.7461
               WELLS =   175344016.0000                 WELLS =       30000.0000
    INST. IB STORAGE =           0.0000      INST. IB STORAGE =           0.0000
    DELAY IB STORAGE =          39.8223      DELAY IB STORAGE =           0.0000

           TOTAL OUT =   334183936.0000             TOTAL OUT =       55234.7461

            IN - OUT =        -352.0000              IN - OUT =      -3.5156E-02

 PERCENT DISCREPANCY =           0.00     PERCENT DISCREPANCY =           0.00






          TIME SUMMARY AT END OF TIME STEP   6 IN STRESS PERIOD   17
                    SECONDS     MINUTES      HOURS       DAYS        YEARS
                    -----------------------------------------------------------
   TIME STEP LENGTH 9.18681E+06 1.53113E+05  2551.9      106.33     0.29111    
 STRESS PERIOD TIME 3.15619E+07 5.26032E+05  8767.2      365.30      1.0001    
         TOTAL TIME 5.05077E+08 8.41795E+06 1.40299E+05  5845.8      16.005    
1

                               VOLUMETRIC BUDGET FOR SYSTEMS OF DELAY INTERBEDS
                                          AT END OF TIME STEP  6 IN STRESS PERIOD 17

          |   C U M U L A T I V E   V O L U M E S   L**3           | R A T E S   F O R  T H I S  T I M E  S T E P   L**3/T  |
   SYSTEM |    CHANGE IN     BOUNDARY                    PERCENT   |    CHANGE IN     BOUNDARY                    PERCENT   |
   NUMBER |     STORAGE        FLOW           SUM      DISCREPANCY |     STORAGE        FLOW           SUM      DISCREPANCY |
  --------|--------------------------------------------------------|--------------------------------------------------------|
      1     69558.        -69558.       -0.78125E-02   -0.11232E-04     9.5207        -9.5207       -0.47684E-05   -0.50084E-04
      2    0.91473E+08   -0.91473E+08    -8.0000       -0.87457E-05     15987.        -15987.       -0.29297E-02   -0.18325E-04
  --------|--------------------------------------------------------|--------------------------------------------------------|
 TOTALS:    0.91543E+08   -0.91543E+08    -8.0000       -0.87391E-05     15997.        -15997.       -0.29297E-02   -0.18314E-04
1
                            STRESS PERIOD NO.   18, LENGTH =   365.3000    
                            -----------------------------------------------

                              NUMBER OF TIME STEPS =     6

                               MULTIPLIER FOR DELT =     1.300

                            INITIAL TIME STEP SIZE =   28.63744    

 REUSING NON-PARAMETER WELLS FROM LAST STRESS PERIOD

     14 WELLS
 
 SOLVING FOR HEAD 

    37 ITERATIONS FOR TIME STEP   1 IN STRESS PERIOD   18

 OUTPUT CONTROL FOR STRESS PERIOD   18   TIME STEP   1
    SAVE HEAD FOR ALL LAYERS

 HEAD WILL BE SAVED ON UNIT   21 AT END OF TIME STEP   1, STRESS PERIOD   18
 
 SOLVING FOR HEAD 
    35 ITERATIONS FOR TIME STEP   2 IN STRESS PERIOD   18

 OUTPUT CONTROL FOR STRESS PERIOD   18   TIME STEP   2
    SAVE HEAD FOR ALL LAYERS

 HEAD WILL BE SAVED ON UNIT   21 AT END OF TIME STEP   2, STRESS PERIOD   18
 
 SOLVING FOR HEAD 
    33 ITERATIONS FOR TIME STEP   3 IN STRESS PERIOD   18

 OUTPUT CONTROL FOR STRESS PERIOD   18   TIME STEP   3
    SAVE HEAD FOR ALL LAYERS

 HEAD WILL BE SAVED ON UNIT   21 AT END OF TIME STEP   3, STRESS PERIOD   18
 
 SOLVING FOR HEAD 
    29 ITERATIONS FOR TIME STEP   4 IN STRESS PERIOD   18

 OUTPUT CONTROL FOR STRESS PERIOD   18   TIME STEP   4
    SAVE HEAD FOR ALL LAYERS

 HEAD WILL BE SAVED ON UNIT   21 AT END OF TIME STEP   4, STRESS PERIOD   18
 
 SOLVING FOR HEAD 
    25 ITERATIONS FOR TIME STEP   5 IN STRESS PERIOD   18

 MAXIMUM HEAD CHANGE FOR EACH ITERATION:

    HEAD CHANGE   HEAD CHANGE   HEAD CHANGE   HEAD CHANGE   HEAD CHANGE
  LAYER,ROW,COL LAYER,ROW,COL LAYER,ROW,COL LAYER,ROW,COL LAYER,ROW,COL
 ----------------------------------------------------------------------
     0.5536         1.078         1.089       -0.9250        -2.599    
  (  3,  1, 10) (  3,  1,  9) (  3,  1,  1) (  3,  1, 10) (  3,  1,  1)
     0.6976        0.4194        0.1324        0.6781E-01   -0.4537E-01
  (  3, 10,  1) (  3,  9,  3) (  2,  1,  8) (  2, 10,  1) (  2, 10, 10)
     0.7515E-01    0.1267E-01   -0.6586E-02   -0.3479E-02   -0.2314E-02
  (  2,  6,  1) (  2,  1,  2) (  3,  8,  4) (  3,  8,  1) (  3,  8,  3)
    -0.1972E-02   -0.1564E-02   -0.1214E-02   -0.6576E-03   -0.4205E-03
  (  2,  6,  1) (  3,  8,  3) (  3,  8,  2) (  3,  8,  4) (  3,  8,  2)
    -0.1999E-03   -0.2929E-03   -0.2295E-03   -0.1217E-03   -0.7323E-04
  (  3, 10, 10) (  3,  8,  2) (  3,  8,  4) (  3,  6,  3) (  3,  7,  3)


 OUTPUT CONTROL FOR STRESS PERIOD   18   TIME STEP   5
    SAVE HEAD FOR ALL LAYERS

 HEAD WILL BE SAVED ON UNIT   21 AT END OF TIME STEP   5, STRESS PERIOD   18
 
 SOLVING FOR HEAD 
    25 ITERATIONS FOR TIME STEP   6 IN STRESS PERIOD   18

 MAXIMUM HEAD CHANGE FOR EACH ITERATION:

    HEAD CHANGE   HEAD CHANGE   HEAD CHANGE   HEAD CHANGE   HEAD CHANGE
  LAYER,ROW,COL LAYER,ROW,COL LAYER,ROW,COL LAYER,ROW,COL LAYER,ROW,COL
 ----------------------------------------------------------------------
     0.4193        0.5883        0.4446        -1.055        -1.101    
  (  3,  1, 10) (  3,  2,  7) (  3,  2,  4) (  3,  1, 10) (  3,  1,  1)
     0.4959        0.2894        0.8003E-01    0.2683E-01   -0.2606E-01
  (  3,  1, 10) (  3,  2,  2) (  2,  1,  9) (  2, 10,  1) (  2, 10, 10)
     0.2639E-01   -0.1132E-01   -0.9139E-02   -0.4662E-02   -0.2803E-02
  (  2,  7,  1) (  3,  2,  7) (  3,  3,  6) (  3,  2,  7) (  3,  2,  6)
    -0.2485E-02   -0.1874E-02   -0.1600E-02   -0.7919E-03   -0.5025E-03
  (  2,  7,  1) (  3,  2,  6) (  3,  3,  6) (  3,  3,  6) (  3,  3,  6)
    -0.3980E-03   -0.3307E-03   -0.2725E-03   -0.1446E-03   -0.8582E-04
  (  2,  8,  1) (  3,  2,  7) (  3,  3,  6) (  3,  3,  6) (  3,  3,  6)


 OUTPUT CONTROL FOR STRESS PERIOD   18   TIME STEP   6
    PRINT BUDGET
    PRINT HEAD FOR ALL LAYERS
    SAVE HEAD FOR ALL LAYERS
    SAVE DRAWDOWN FOR ALL LAYERS
1
              HEAD IN LAYER   1 AT END OF TIME STEP   6 IN STRESS PERIOD   18
  ---------------------------------------------------------------------------

           1       2       3       4       5       6       7       8       9      10
 ...................................................................................
   1    20.77   20.42   19.75   19.33   19.13   19.13   19.33   19.75   20.41   20.76
   2    19.75   19.25   18.82   18.52   18.37   18.37   18.52   18.81   19.24   19.74
   3    18.29   17.80   17.43   17.18   17.05   17.05   17.17   17.42   17.79   18.28
   4    16.31   15.87   15.57   15.38   15.28   15.28   15.37   15.56   15.86   16.30
   5    13.49   13.40   13.30   13.21   13.17   13.17   13.21   13.29   13.39   13.48
   6    11.00   10.98   10.94   10.90   10.88   10.88   10.90   10.93   10.97   11.00
   7     8.61    8.59    8.55    8.52    8.50    8.49    8.51    8.55    8.58    8.60
   8     6.29    6.23    6.15    6.06    6.01    6.01    6.06    6.14    6.23    6.28
   9     4.15    4.00    3.73    3.42    3.29    3.29    3.42    3.72    4.00    4.15
  10     2.62    2.24    1.41    0.00    0.00    0.00    0.00    1.41    2.24    2.62
1
              HEAD IN LAYER   2 AT END OF TIME STEP   6 IN STRESS PERIOD   18
  ---------------------------------------------------------------------------

           1       2       3       4       5       6       7       8       9      10
 ...................................................................................
   1    -1.93   -1.92   -1.92   -1.93   -1.94   -1.96   -1.98   -2.00   -2.02   -2.06
   2    -2.03   -0.99   -1.26   -1.75   -2.24   -2.62   -2.59   -2.25   -1.92   -2.23
   3    -2.18   -1.55   -2.02   -2.84   -4.00   -5.57   -5.18   -3.85   -2.91   -2.41
   4    -2.35   -1.90   -2.28   -2.88   -3.63   -4.48   -4.34   -3.62   -3.01   -2.60
   5    -2.56   -2.20   -2.36   -2.63   -2.92   -3.14   -3.16   -3.03   -2.87   -2.78
   6    -2.77   -2.47   -2.52   -2.64   -2.76   -2.84   -2.88   -2.87   -2.85   -2.97
   7    -3.00   -2.86   -2.89   -2.95   -3.01   -3.05   -3.07   -3.07   -3.07   -3.16
   8    -3.23   -3.39   -3.47   -3.54   -3.59   -3.61   -3.61   -3.57   -3.52   -3.35
   9    -3.46   -4.03   -4.24   -4.40   -4.47   -4.49   -4.44   -4.30   -4.10   -3.54
  10    -3.67   -3.71   -3.75   -3.79   -3.80   -3.81   -3.80   -3.78   -3.75   -3.71
1
              HEAD IN LAYER   3 AT END OF TIME STEP   6 IN STRESS PERIOD   18
  ---------------------------------------------------------------------------

           1       2       3       4       5       6       7       8       9      10
 ...................................................................................
   1   -20.47  -20.64  -20.95  -21.37  -21.80  -22.15  -22.31  -22.31  -22.23  -22.18
   2   -20.53  -20.79  -21.30  -22.03  -22.90  -23.67  -23.75  -23.35  -22.94  -22.71
   3   -20.29  -20.68  -21.51  -22.90  -25.14  -28.75  -27.89  -25.19  -23.72  -23.07
   4   -19.21  -19.52  -20.17  -21.19  -22.62  -24.49  -24.22  -22.87  -21.99  -21.56
   5   -17.53  -17.71  -18.04  -18.51  -19.05  -19.50  -19.59  -19.40  -19.19  -19.05
   6   -15.78  -15.86  -16.02  -16.22  -16.43  -16.61  -16.70  -16.71  -16.68  -16.66
   7   -14.26  -14.30  -14.37  -14.46  -14.55  -14.64  -14.69  -14.72  -14.74  -14.74
   8   -13.09  -13.11  -13.14  -13.18  -13.23  -13.28  -13.31  -13.34  -13.35  -13.36
   9   -12.31  -12.32  -12.34  -12.36  -12.39  -12.41  -12.44  -12.45  -12.46  -12.47
  10   -11.92  -11.93  -11.94  -11.95  -11.97  -11.99  -12.01  -12.02  -12.03  -12.03

 HEAD WILL BE SAVED ON UNIT   21 AT END OF TIME STEP   6, STRESS PERIOD   18

 DRAWDOWN WILL BE SAVED ON UNIT   22 AT END OF TIME STEP   6, STRESS PERIOD   18
1
  VOLUMETRIC BUDGET FOR ENTIRE MODEL AT END OF TIME STEP  6 IN STRESS PERIOD  18
  ------------------------------------------------------------------------------

     CUMULATIVE VOLUMES      L**3       RATES FOR THIS TIME STEP      L**3/T
     ------------------                 ------------------------

           IN:                                      IN:
           ---                                      ---
             STORAGE =    29123828.0000               STORAGE =        3775.4272
       CONSTANT HEAD =      244961.4062         CONSTANT HEAD =          91.2057
               WELLS =   186333008.0000                 WELLS =       30000.0000
    INST. IB STORAGE =    41252080.0000      INST. IB STORAGE =        5264.3120
    DELAY IB STORAGE =    97361224.0000      DELAY IB STORAGE =       15895.4609

            TOTAL IN =   354315104.0000              TOTAL IN =       55026.4062

          OUT:                                     OUT:
          ----                                     ----
             STORAGE =           0.0000               STORAGE =           0.0000
       CONSTANT HEAD =   168012432.0000         CONSTANT HEAD =       25026.4277
               WELLS =   186303008.0000                 WELLS =       30000.0000
    INST. IB STORAGE =           0.0000      INST. IB STORAGE =           0.0000
    DELAY IB STORAGE =          39.8223      DELAY IB STORAGE =           0.0000

           TOTAL OUT =   354315488.0000             TOTAL OUT =       55026.4297

            IN - OUT =        -384.0000              IN - OUT =      -2.3438E-02

 PERCENT DISCREPANCY =           0.00     PERCENT DISCREPANCY =           0.00






          TIME SUMMARY AT END OF TIME STEP   6 IN STRESS PERIOD   18
                    SECONDS     MINUTES      HOURS       DAYS        YEARS
                    -----------------------------------------------------------
   TIME STEP LENGTH 9.18681E+06 1.53113E+05  2551.9      106.33     0.29111    
 STRESS PERIOD TIME 3.15619E+07 5.26032E+05  8767.2      365.30      1.0001    
         TOTAL TIME 5.36639E+08 8.94398E+06 1.49066E+05  6211.1      17.005    
1

                               VOLUMETRIC BUDGET FOR SYSTEMS OF DELAY INTERBEDS
                                          AT END OF TIME STEP  6 IN STRESS PERIOD 18

          |   C U M U L A T I V E   V O L U M E S   L**3           | R A T E S   F O R  T H I S  T I M E  S T E P   L**3/T  |
   SYSTEM |    CHANGE IN     BOUNDARY                    PERCENT   |    CHANGE IN     BOUNDARY                    PERCENT   |
   NUMBER |     STORAGE        FLOW           SUM      DISCREPANCY |     STORAGE        FLOW           SUM      DISCREPANCY |
  --------|--------------------------------------------------------|--------------------------------------------------------|
      1     73231.        -73231.       -0.78125E-02   -0.10668E-04     9.2865        -9.2865         0.0000         0.0000    
      2    0.97288E+08   -0.97288E+08    -8.0000       -0.82230E-05     15886.        -15886.       -0.29297E-02   -0.18442E-04
  --------|--------------------------------------------------------|--------------------------------------------------------|
 TOTALS:    0.97361E+08   -0.97361E+08    -8.0000       -0.82168E-05     15895.        -15895.       -0.29297E-02   -0.18431E-04
1
                            STRESS PERIOD NO.   19, LENGTH =   365.3000    
                            -----------------------------------------------

                              NUMBER OF TIME STEPS =     6

                               MULTIPLIER FOR DELT =     1.300

                            INITIAL TIME STEP SIZE =   28.63744    

 REUSING NON-PARAMETER WELLS FROM LAST STRESS PERIOD

     14 WELLS
 
 SOLVING FOR HEAD 

    36 ITERATIONS FOR TIME STEP   1 IN STRESS PERIOD   19

 OUTPUT CONTROL FOR STRESS PERIOD   19   TIME STEP   1
    SAVE HEAD FOR ALL LAYERS

 HEAD WILL BE SAVED ON UNIT   21 AT END OF TIME STEP   1, STRESS PERIOD   19
 
 SOLVING FOR HEAD 
    36 ITERATIONS FOR TIME STEP   2 IN STRESS PERIOD   19

 OUTPUT CONTROL FOR STRESS PERIOD   19   TIME STEP   2
    SAVE HEAD FOR ALL LAYERS

 HEAD WILL BE SAVED ON UNIT   21 AT END OF TIME STEP   2, STRESS PERIOD   19
 
 SOLVING FOR HEAD 
    33 ITERATIONS FOR TIME STEP   3 IN STRESS PERIOD   19

 OUTPUT CONTROL FOR STRESS PERIOD   19   TIME STEP   3
    SAVE HEAD FOR ALL LAYERS

 HEAD WILL BE SAVED ON UNIT   21 AT END OF TIME STEP   3, STRESS PERIOD   19
 
 SOLVING FOR HEAD 
    29 ITERATIONS FOR TIME STEP   4 IN STRESS PERIOD   19

 OUTPUT CONTROL FOR STRESS PERIOD   19   TIME STEP   4
    SAVE HEAD FOR ALL LAYERS

 HEAD WILL BE SAVED ON UNIT   21 AT END OF TIME STEP   4, STRESS PERIOD   19
 
 SOLVING FOR HEAD 
    25 ITERATIONS FOR TIME STEP   5 IN STRESS PERIOD   19

 MAXIMUM HEAD CHANGE FOR EACH ITERATION:

    HEAD CHANGE   HEAD CHANGE   HEAD CHANGE   HEAD CHANGE   HEAD CHANGE
  LAYER,ROW,COL LAYER,ROW,COL LAYER,ROW,COL LAYER,ROW,COL LAYER,ROW,COL
 ----------------------------------------------------------------------
     0.5733         1.051         1.133       -0.9486        -2.606    
  (  3,  1,  7) (  3,  2,  9) (  3,  1,  1) (  3,  2, 10) (  3,  1,  1)
     0.7169        0.4323        0.1397        0.7209E-01   -0.4826E-01
  (  3, 10,  1) (  3,  9,  3) (  2,  1,  8) (  2, 10,  1) (  2, 10, 10)
     0.7831E-01    0.1327E-01   -0.6948E-02   -0.3669E-02   -0.2451E-02
  (  2,  6,  1) (  2,  1,  2) (  3,  8,  4) (  3,  8,  2) (  3,  8,  3)
    -0.2125E-02   -0.1662E-02   -0.1290E-02   -0.6951E-03   -0.4444E-03
  (  2,  6,  1) (  3,  8,  3) (  3,  8,  3) (  3,  8,  3) (  3,  8,  3)
    -0.2048E-03   -0.3106E-03   -0.2431E-03   -0.1273E-03   -0.8209E-04
  (  3, 10, 10) (  3,  8,  3) (  3,  8,  4) (  3,  8,  3) (  3,  8,  3)


 OUTPUT CONTROL FOR STRESS PERIOD   19   TIME STEP   5
    SAVE HEAD FOR ALL LAYERS

 HEAD WILL BE SAVED ON UNIT   21 AT END OF TIME STEP   5, STRESS PERIOD   19
 
 SOLVING FOR HEAD 
    25 ITERATIONS FOR TIME STEP   6 IN STRESS PERIOD   19

 MAXIMUM HEAD CHANGE FOR EACH ITERATION:

    HEAD CHANGE   HEAD CHANGE   HEAD CHANGE   HEAD CHANGE   HEAD CHANGE
  LAYER,ROW,COL LAYER,ROW,COL LAYER,ROW,COL LAYER,ROW,COL LAYER,ROW,COL
 ----------------------------------------------------------------------
     0.3640        0.6182        0.4456        -1.018        -1.121    
  (  3,  1,  1) (  3,  1,  8) (  3,  3,  3) (  3,  1, 10) (  3,  1,  1)
     0.4921        0.2944        0.8137E-01    0.2737E-01   -0.2628E-01
  (  3,  1, 10) (  3,  2,  2) (  2,  1,  9) (  2, 10,  1) (  2, 10, 10)
     0.2676E-01   -0.1122E-01   -0.9016E-02   -0.4610E-02   -0.2768E-02
  (  2,  7,  1) (  3,  2,  7) (  3,  2,  5) (  3,  2,  7) (  3,  2,  6)
    -0.2451E-02   -0.1852E-02   -0.1576E-02   -0.7739E-03   -0.4930E-03
  (  2,  7,  1) (  3,  2,  6) (  3,  3,  6) (  3,  3,  6) (  3,  3,  6)
    -0.3873E-03   -0.3275E-03   -0.2669E-03   -0.1420E-03   -0.8246E-04
  (  2,  8,  1) (  3,  2,  7) (  3,  3,  6) (  3,  3,  6) (  3,  3,  6)


 OUTPUT CONTROL FOR STRESS PERIOD   19   TIME STEP   6
    PRINT BUDGET
    PRINT HEAD FOR ALL LAYERS
    SAVE HEAD FOR ALL LAYERS
    SAVE DRAWDOWN FOR ALL LAYERS
1
              HEAD IN LAYER   1 AT END OF TIME STEP   6 IN STRESS PERIOD   19
  ---------------------------------------------------------------------------

           1       2       3       4       5       6       7       8       9      10
 ...................................................................................
   1    20.68   20.33   19.66   19.24   19.03   19.03   19.23   19.65   20.32   20.67
   2    19.66   19.15   18.73   18.43   18.27   18.27   18.42   18.72   19.14   19.65
   3    18.20   17.70   17.33   17.09   16.96   16.96   17.08   17.32   17.69   18.19
   4    16.22   15.78   15.48   15.29   15.20   15.19   15.29   15.47   15.77   16.21
   5    13.41   13.32   13.22   13.13   13.09   13.09   13.13   13.21   13.31   13.40
   6    10.93   10.90   10.87   10.83   10.81   10.81   10.83   10.86   10.90   10.92
   7     8.55    8.53    8.49    8.46    8.44    8.44    8.46    8.49    8.52    8.54
   8     6.24    6.19    6.10    6.01    5.96    5.96    6.01    6.10    6.18    6.24
   9     4.12    3.97    3.70    3.39    3.26    3.26    3.39    3.69    3.97    4.12
  10     2.60    2.22    1.40    0.00    0.00    0.00    0.00    1.40    2.22    2.59
1
              HEAD IN LAYER   2 AT END OF TIME STEP   6 IN STRESS PERIOD   19
  ---------------------------------------------------------------------------

           1       2       3       4       5       6       7       8       9      10
 ...................................................................................
   1    -2.25   -2.24   -2.24   -2.25   -2.26   -2.28   -2.30   -2.32   -2.34   -2.38
   2    -2.35   -1.33   -1.61   -2.10   -2.59   -2.97   -2.94   -2.60   -2.26   -2.54
   3    -2.49   -1.88   -2.36   -3.18   -4.34   -5.91   -5.52   -4.19   -3.25   -2.72
   4    -2.66   -2.22   -2.61   -3.20   -3.96   -4.81   -4.66   -3.95   -3.34   -2.90
   5    -2.85   -2.50   -2.66   -2.94   -3.22   -3.45   -3.47   -3.34   -3.18   -3.08
   6    -3.06   -2.76   -2.81   -2.93   -3.05   -3.13   -3.17   -3.16   -3.14   -3.26
   7    -3.28   -3.13   -3.16   -3.22   -3.28   -3.32   -3.34   -3.34   -3.34   -3.44
   8    -3.50   -3.65   -3.73   -3.79   -3.84   -3.86   -3.86   -3.83   -3.77   -3.63
   9    -3.73   -4.27   -4.48   -4.63   -4.71   -4.72   -4.67   -4.54   -4.35   -3.81
  10    -3.93   -3.98   -4.02   -4.05   -4.07   -4.07   -4.06   -4.04   -4.01   -3.98
1
              HEAD IN LAYER   3 AT END OF TIME STEP   6 IN STRESS PERIOD   19
  ---------------------------------------------------------------------------

           1       2       3       4       5       6       7       8       9      10
 ...................................................................................
   1   -21.08  -21.24  -21.56  -21.97  -22.41  -22.76  -22.92  -22.92  -22.85  -22.79
   2   -21.13  -21.39  -21.90  -22.63  -23.50  -24.28  -24.36  -23.95  -23.55  -23.31
   3   -20.87  -21.26  -22.09  -23.49  -25.72  -29.34  -28.48  -25.78  -24.31  -23.66
   4   -19.77  -20.08  -20.73  -21.75  -23.18  -25.05  -24.79  -23.44  -22.56  -22.13
   5   -18.07  -18.24  -18.58  -19.05  -19.58  -20.04  -20.13  -19.94  -19.73  -19.59
   6   -16.29  -16.37  -16.53  -16.73  -16.94  -17.12  -17.21  -17.22  -17.19  -17.17
   7   -14.74  -14.78  -14.85  -14.94  -15.03  -15.12  -15.18  -15.21  -15.22  -15.22
   8   -13.55  -13.56  -13.60  -13.64  -13.69  -13.73  -13.77  -13.79  -13.81  -13.82
   9   -12.75  -12.76  -12.78  -12.80  -12.83  -12.86  -12.88  -12.89  -12.90  -12.91
  10   -12.35  -12.36  -12.37  -12.39  -12.40  -12.42  -12.44  -12.45  -12.46  -12.46

 HEAD WILL BE SAVED ON UNIT   21 AT END OF TIME STEP   6, STRESS PERIOD   19

 DRAWDOWN WILL BE SAVED ON UNIT   22 AT END OF TIME STEP   6, STRESS PERIOD   19
1
  VOLUMETRIC BUDGET FOR ENTIRE MODEL AT END OF TIME STEP  6 IN STRESS PERIOD  19
  ------------------------------------------------------------------------------

     CUMULATIVE VOLUMES      L**3       RATES FOR THIS TIME STEP      L**3/T
     ------------------                 ------------------------

           IN:                                      IN:
           ---                                      ---
             STORAGE =    30486506.0000               STORAGE =        3701.4751
       CONSTANT HEAD =      279656.7812         CONSTANT HEAD =          97.5029
               WELLS =   197292000.0000                 WELLS =       30000.0000
    INST. IB STORAGE =    43171412.0000      INST. IB STORAGE =        5236.1519
    DELAY IB STORAGE =   103141792.0000      DELAY IB STORAGE =       15786.7041

            TOTAL IN =   374371360.0000              TOTAL IN =       54821.8320

          OUT:                                     OUT:
          ----                                     ----
             STORAGE =           0.0000               STORAGE =           0.0000
       CONSTANT HEAD =   177109712.0000         CONSTANT HEAD =       24821.8633
               WELLS =   197262000.0000                 WELLS =       30000.0000
    INST. IB STORAGE =           0.0000      INST. IB STORAGE =           0.0000
    DELAY IB STORAGE =          39.8223      DELAY IB STORAGE =           0.0000

           TOTAL OUT =   374371744.0000             TOTAL OUT =       54821.8633

            IN - OUT =        -384.0000              IN - OUT =      -3.1250E-02

 PERCENT DISCREPANCY =           0.00     PERCENT DISCREPANCY =           0.00






          TIME SUMMARY AT END OF TIME STEP   6 IN STRESS PERIOD   19
                    SECONDS     MINUTES      HOURS       DAYS        YEARS
                    -----------------------------------------------------------
   TIME STEP LENGTH 9.18681E+06 1.53113E+05  2551.9      106.33     0.29111    
 STRESS PERIOD TIME 3.15619E+07 5.26032E+05  8767.2      365.30      1.0001    
         TOTAL TIME 5.68201E+08 9.47002E+06 1.57834E+05  6576.4      18.005    
1

                               VOLUMETRIC BUDGET FOR SYSTEMS OF DELAY INTERBEDS
                                          AT END OF TIME STEP  6 IN STRESS PERIOD 19

          |   C U M U L A T I V E   V O L U M E S   L**3           | R A T E S   F O R  T H I S  T I M E  S T E P   L**3/T  |
   SYSTEM |    CHANGE IN     BOUNDARY                    PERCENT   |    CHANGE IN     BOUNDARY                    PERCENT   |
   NUMBER |     STORAGE        FLOW           SUM      DISCREPANCY |     STORAGE        FLOW           SUM      DISCREPANCY |
  --------|--------------------------------------------------------|--------------------------------------------------------|
      1     76840.        -76840.       -0.78125E-02   -0.10167E-04     9.0855        -9.0855         0.0000         0.0000    
      2    0.10306E+09   -0.10306E+09    -8.0000       -0.77621E-05     15778.        -15778.        0.97656E-03    0.61895E-05
  --------|--------------------------------------------------------|--------------------------------------------------------|
 TOTALS:    0.10314E+09   -0.10314E+09    -8.0000       -0.77563E-05     15787.        -15787.        0.97656E-03    0.61860E-05
1
                            STRESS PERIOD NO.   20, LENGTH =   365.3000    
                            -----------------------------------------------

                              NUMBER OF TIME STEPS =     6

                               MULTIPLIER FOR DELT =     1.300

                            INITIAL TIME STEP SIZE =   28.63744    

 REUSING NON-PARAMETER WELLS FROM LAST STRESS PERIOD

     14 WELLS
 
 SOLVING FOR HEAD 

    36 ITERATIONS FOR TIME STEP   1 IN STRESS PERIOD   20

 OUTPUT CONTROL FOR STRESS PERIOD   20   TIME STEP   1
    SAVE HEAD FOR ALL LAYERS

 HEAD WILL BE SAVED ON UNIT   21 AT END OF TIME STEP   1, STRESS PERIOD   20
 
 SOLVING FOR HEAD 
    35 ITERATIONS FOR TIME STEP   2 IN STRESS PERIOD   20

 OUTPUT CONTROL FOR STRESS PERIOD   20   TIME STEP   2
    SAVE HEAD FOR ALL LAYERS

 HEAD WILL BE SAVED ON UNIT   21 AT END OF TIME STEP   2, STRESS PERIOD   20
 
 SOLVING FOR HEAD 
    32 ITERATIONS FOR TIME STEP   3 IN STRESS PERIOD   20

 OUTPUT CONTROL FOR STRESS PERIOD   20   TIME STEP   3
    SAVE HEAD FOR ALL LAYERS

 HEAD WILL BE SAVED ON UNIT   21 AT END OF TIME STEP   3, STRESS PERIOD   20
 
 SOLVING FOR HEAD 
    28 ITERATIONS FOR TIME STEP   4 IN STRESS PERIOD   20

 OUTPUT CONTROL FOR STRESS PERIOD   20   TIME STEP   4
    SAVE HEAD FOR ALL LAYERS

 HEAD WILL BE SAVED ON UNIT   21 AT END OF TIME STEP   4, STRESS PERIOD   20
 
 SOLVING FOR HEAD 
    25 ITERATIONS FOR TIME STEP   5 IN STRESS PERIOD   20

 MAXIMUM HEAD CHANGE FOR EACH ITERATION:

    HEAD CHANGE   HEAD CHANGE   HEAD CHANGE   HEAD CHANGE   HEAD CHANGE
  LAYER,ROW,COL LAYER,ROW,COL LAYER,ROW,COL LAYER,ROW,COL LAYER,ROW,COL
 ----------------------------------------------------------------------
     0.5682        0.9929         1.096       -0.8380        -2.576    
  (  3,  1, 10) (  3,  1,  7) (  3,  2,  1) (  3,  2, 10) (  3,  1,  1)
     0.6878        0.4126        0.1328        0.6837E-01   -0.4584E-01
  (  3, 10,  1) (  3,  9,  6) (  2,  1,  8) (  2, 10,  1) (  2, 10, 10)
     0.7505E-01    0.1265E-01   -0.6580E-02   -0.3531E-02   -0.2277E-02
  (  2,  6,  1) (  2,  1,  2) (  3,  7,  4) (  3,  7,  1) (  3,  8,  1)
    -0.1930E-02   -0.1556E-02   -0.1228E-02   -0.6502E-03   -0.4333E-03
  (  2,  5,  1) (  3,  7,  3) (  3,  7,  3) (  3,  7,  4) (  3,  6,  4)
    -0.1896E-03   -0.2933E-03   -0.2281E-03   -0.1274E-03   -0.7398E-04
  (  3, 10, 10) (  3,  7,  3) (  3,  7,  4) (  3,  6,  4) (  3,  7,  3)


 OUTPUT CONTROL FOR STRESS PERIOD   20   TIME STEP   5
    SAVE HEAD FOR ALL LAYERS

 HEAD WILL BE SAVED ON UNIT   21 AT END OF TIME STEP   5, STRESS PERIOD   20
 
 SOLVING FOR HEAD 
    25 ITERATIONS FOR TIME STEP   6 IN STRESS PERIOD   20

 MAXIMUM HEAD CHANGE FOR EACH ITERATION:

    HEAD CHANGE   HEAD CHANGE   HEAD CHANGE   HEAD CHANGE   HEAD CHANGE
  LAYER,ROW,COL LAYER,ROW,COL LAYER,ROW,COL LAYER,ROW,COL LAYER,ROW,COL
 ----------------------------------------------------------------------
     0.3829        0.5687        0.4759        -1.013        -1.110    
  (  3,  1, 10) (  3,  1,  7) (  3,  2,  1) (  3,  1, 10) (  3,  1,  1)
     0.4903        0.2965        0.8191E-01    0.2786E-01   -0.2673E-01
  (  3,  1, 10) (  3,  2,  2) (  2,  1,  9) (  2, 10,  1) (  2, 10, 10)
     0.2699E-01   -0.1122E-01   -0.9063E-02   -0.4607E-02   -0.2761E-02
  (  2,  7,  1) (  3,  2,  6) (  3,  2,  4) (  3,  2,  6) (  3,  2,  6)
    -0.2459E-02   -0.1851E-02   -0.1575E-02   -0.7723E-03   -0.4910E-03
  (  2,  7,  1) (  3,  2,  5) (  3,  3,  5) (  3,  3,  6) (  3,  3,  6)
    -0.3892E-03   -0.3257E-03   -0.2651E-03   -0.1408E-03   -0.8230E-04
  (  2,  8,  1) (  3,  2,  6) (  3,  3,  6) (  3,  3,  6) (  3,  3,  6)


 OUTPUT CONTROL FOR STRESS PERIOD   20   TIME STEP   6
    PRINT BUDGET
    PRINT HEAD FOR ALL LAYERS
    SAVE HEAD FOR ALL LAYERS
    SAVE DRAWDOWN FOR ALL LAYERS
1
              HEAD IN LAYER   1 AT END OF TIME STEP   6 IN STRESS PERIOD   20
  ---------------------------------------------------------------------------

           1       2       3       4       5       6       7       8       9      10
 ...................................................................................
   1    20.58   20.23   19.56   19.14   18.94   18.93   19.14   19.56   20.22   20.58
   2    19.57   19.06   18.63   18.33   18.18   18.18   18.33   18.63   19.05   19.56
   3    18.11   17.61   17.24   16.99   16.87   16.87   16.99   17.23   17.60   18.10
   4    16.13   15.70   15.40   15.21   15.11   15.11   15.20   15.39   15.69   16.12
   5    13.33   13.24   13.14   13.05   13.01   13.01   13.05   13.13   13.23   13.32
   6    10.86   10.83   10.80   10.76   10.74   10.74   10.76   10.79   10.83   10.86
   7     8.49    8.47    8.43    8.40    8.38    8.38    8.40    8.43    8.47    8.49
   8     6.19    6.14    6.06    5.97    5.92    5.92    5.97    6.06    6.14    6.19
   9     4.09    3.94    3.67    3.37    3.24    3.24    3.36    3.67    3.93    4.08
  10     2.57    2.20    1.39    0.00    0.00    0.00    0.00    1.39    2.20    2.57
1
              HEAD IN LAYER   2 AT END OF TIME STEP   6 IN STRESS PERIOD   20
  ---------------------------------------------------------------------------

           1       2       3       4       5       6       7       8       9      10
 ...................................................................................
   1    -2.57   -2.55   -2.55   -2.56   -2.58   -2.59   -2.61   -2.63   -2.66   -2.69
   2    -2.66   -1.66   -1.95   -2.44   -2.93   -3.31   -3.28   -2.95   -2.60   -2.85
   3    -2.79   -2.21   -2.70   -3.51   -4.67   -6.25   -5.86   -4.53   -3.58   -3.03
   4    -2.96   -2.54   -2.93   -3.53   -4.28   -5.13   -4.99   -4.27   -3.66   -3.20
   5    -3.14   -2.81   -2.97   -3.24   -3.53   -3.76   -3.78   -3.65   -3.48   -3.38
   6    -3.35   -3.05   -3.10   -3.22   -3.33   -3.42   -3.46   -3.45   -3.43   -3.55
   7    -3.56   -3.40   -3.43   -3.49   -3.55   -3.59   -3.61   -3.61   -3.61   -3.72
   8    -3.78   -3.90   -3.98   -4.05   -4.09   -4.12   -4.11   -4.08   -4.03   -3.90
   9    -4.00   -4.52   -4.72   -4.87   -4.95   -4.96   -4.91   -4.77   -4.59   -4.08
  10    -4.20   -4.24   -4.28   -4.31   -4.33   -4.33   -4.33   -4.31   -4.28   -4.24
1
              HEAD IN LAYER   3 AT END OF TIME STEP   6 IN STRESS PERIOD   20
  ---------------------------------------------------------------------------

           1       2       3       4       5       6       7       8       9      10
 ...................................................................................
   1   -21.67  -21.84  -22.16  -22.57  -23.01  -23.36  -23.52  -23.52  -23.45  -23.39
   2   -21.72  -21.98  -22.49  -23.22  -24.09  -24.87  -24.95  -24.55  -24.14  -23.91
   3   -21.45  -21.84  -22.67  -24.07  -26.30  -29.92  -29.06  -26.36  -24.89  -24.24
   4   -20.32  -20.64  -21.29  -22.31  -23.74  -25.61  -25.35  -24.00  -23.12  -22.69
   5   -18.60  -18.78  -19.11  -19.58  -20.12  -20.57  -20.66  -20.48  -20.26  -20.13
   6   -16.79  -16.88  -17.03  -17.24  -17.45  -17.63  -17.71  -17.72  -17.70  -17.68
   7   -15.22  -15.26  -15.33  -15.42  -15.52  -15.60  -15.66  -15.69  -15.70  -15.71
   8   -14.01  -14.02  -14.06  -14.10  -14.15  -14.19  -14.23  -14.26  -14.27  -14.28
   9   -13.19  -13.20  -13.22  -13.25  -13.27  -13.30  -13.32  -13.34  -13.35  -13.35
  10   -12.79  -12.79  -12.81  -12.82  -12.84  -12.86  -12.88  -12.89  -12.90  -12.90

 HEAD WILL BE SAVED ON UNIT   21 AT END OF TIME STEP   6, STRESS PERIOD   20

 DRAWDOWN WILL BE SAVED ON UNIT   22 AT END OF TIME STEP   6, STRESS PERIOD   20
1
  VOLUMETRIC BUDGET FOR ENTIRE MODEL AT END OF TIME STEP  6 IN STRESS PERIOD  20
  ------------------------------------------------------------------------------

     CUMULATIVE VOLUMES      L**3       RATES FOR THIS TIME STEP      L**3/T
     ------------------                 ------------------------

           IN:                                      IN:
           ---                                      ---
             STORAGE =    31822772.0000               STORAGE =        3630.1926
       CONSTANT HEAD =      316650.5312         CONSTANT HEAD =         103.7906
               WELLS =   208250992.0000                 WELLS =       30000.0000
    INST. IB STORAGE =    45077212.0000      INST. IB STORAGE =        5197.2075
    DELAY IB STORAGE =   108886072.0000      DELAY IB STORAGE =       15689.6621

            TOTAL IN =   394353696.0000              TOTAL IN =       54620.8516

          OUT:                                     OUT:
          ----                                     ----
             STORAGE =           0.0000               STORAGE =           0.0000
       CONSTANT HEAD =   186133040.0000         CONSTANT HEAD =       24620.9102
               WELLS =   208220992.0000                 WELLS =       30000.0000
    INST. IB STORAGE =           0.0000      INST. IB STORAGE =           0.0000
    DELAY IB STORAGE =          39.8223      DELAY IB STORAGE =           0.0000

           TOTAL OUT =   394354080.0000             TOTAL OUT =       54620.9102

            IN - OUT =        -384.0000              IN - OUT =      -5.8594E-02

 PERCENT DISCREPANCY =           0.00     PERCENT DISCREPANCY =           0.00






          TIME SUMMARY AT END OF TIME STEP   6 IN STRESS PERIOD   20
                    SECONDS     MINUTES      HOURS       DAYS        YEARS
                    -----------------------------------------------------------
   TIME STEP LENGTH 9.18681E+06 1.53113E+05  2551.9      106.33     0.29111    
 STRESS PERIOD TIME 3.15619E+07 5.26032E+05  8767.2      365.30      1.0001    
         TOTAL TIME 5.99763E+08 9.99605E+06 1.66601E+05  6941.7      19.005    
1

                               VOLUMETRIC BUDGET FOR SYSTEMS OF DELAY INTERBEDS
                                          AT END OF TIME STEP  6 IN STRESS PERIOD 20

          |   C U M U L A T I V E   V O L U M E S   L**3           | R A T E S   F O R  T H I S  T I M E  S T E P   L**3/T  |
   SYSTEM |    CHANGE IN     BOUNDARY                    PERCENT   |    CHANGE IN     BOUNDARY                    PERCENT   |
   NUMBER |     STORAGE        FLOW           SUM      DISCREPANCY |     STORAGE        FLOW           SUM      DISCREPANCY |
  --------|--------------------------------------------------------|--------------------------------------------------------|
      1     80371.        -80371.       -0.78125E-02   -0.97205E-05     8.9534        -8.9534       -0.28610E-05   -0.31955E-04
      2    0.10881E+09   -0.10881E+09    -8.0000       -0.73526E-05     15681.        -15681.        0.97656E-03    0.62278E-05
  --------|--------------------------------------------------------|--------------------------------------------------------|
 TOTALS:    0.10889E+09   -0.10889E+09    -8.0000       -0.73471E-05     15690.        -15690.        0.97656E-03    0.62242E-05
1
                            STRESS PERIOD NO.   21, LENGTH =   365.3000    
                            -----------------------------------------------

                              NUMBER OF TIME STEPS =     6

                               MULTIPLIER FOR DELT =     1.300

                            INITIAL TIME STEP SIZE =   28.63744    

 REUSING NON-PARAMETER WELLS FROM LAST STRESS PERIOD

     14 WELLS
 
 SOLVING FOR HEAD 

    36 ITERATIONS FOR TIME STEP   1 IN STRESS PERIOD   21

 OUTPUT CONTROL FOR STRESS PERIOD   21   TIME STEP   1
    SAVE HEAD FOR ALL LAYERS

 HEAD WILL BE SAVED ON UNIT   21 AT END OF TIME STEP   1, STRESS PERIOD   21
 
 SOLVING FOR HEAD 
    34 ITERATIONS FOR TIME STEP   2 IN STRESS PERIOD   21

 OUTPUT CONTROL FOR STRESS PERIOD   21   TIME STEP   2
    SAVE HEAD FOR ALL LAYERS

 HEAD WILL BE SAVED ON UNIT   21 AT END OF TIME STEP   2, STRESS PERIOD   21
 
 SOLVING FOR HEAD 
    31 ITERATIONS FOR TIME STEP   3 IN STRESS PERIOD   21

 OUTPUT CONTROL FOR STRESS PERIOD   21   TIME STEP   3
    SAVE HEAD FOR ALL LAYERS

 HEAD WILL BE SAVED ON UNIT   21 AT END OF TIME STEP   3, STRESS PERIOD   21
 
 SOLVING FOR HEAD 
    28 ITERATIONS FOR TIME STEP   4 IN STRESS PERIOD   21

 OUTPUT CONTROL FOR STRESS PERIOD   21   TIME STEP   4
    SAVE HEAD FOR ALL LAYERS

 HEAD WILL BE SAVED ON UNIT   21 AT END OF TIME STEP   4, STRESS PERIOD   21
 
 SOLVING FOR HEAD 
    25 ITERATIONS FOR TIME STEP   5 IN STRESS PERIOD   21

 MAXIMUM HEAD CHANGE FOR EACH ITERATION:

    HEAD CHANGE   HEAD CHANGE   HEAD CHANGE   HEAD CHANGE   HEAD CHANGE
  LAYER,ROW,COL LAYER,ROW,COL LAYER,ROW,COL LAYER,ROW,COL LAYER,ROW,COL
 ----------------------------------------------------------------------
     0.6028        0.9693         1.056       -0.8911        -2.542    
  (  3,  1, 10) (  3,  2,  8) (  3,  2,  1) (  3,  2, 10) (  3,  1,  1)
     0.7192        0.4327        0.1384        0.7207E-01   -0.4832E-01
  (  3, 10,  1) (  3,  9,  3) (  2,  1,  8) (  2, 10,  1) (  2, 10, 10)
     0.7885E-01    0.1362E-01   -0.6855E-02   -0.3652E-02   -0.2426E-02
  (  2,  6,  1) (  2,  1,  2) (  3,  8,  4) (  3,  8,  2) (  3,  8,  2)
    -0.2053E-02   -0.1648E-02   -0.1280E-02   -0.6870E-03   -0.4434E-03
  (  2,  6,  1) (  3,  8,  2) (  3,  8,  3) (  3,  8,  3) (  3,  8,  3)
    -0.1767E-03   -0.3080E-03   -0.2396E-03   -0.1273E-03   -0.8227E-04
  (  3,  9,  1) (  3,  8,  2) (  3,  8,  4) (  3,  8,  3) (  3,  8,  2)


 OUTPUT CONTROL FOR STRESS PERIOD   21   TIME STEP   5
    SAVE HEAD FOR ALL LAYERS

 HEAD WILL BE SAVED ON UNIT   21 AT END OF TIME STEP   5, STRESS PERIOD   21
 
 SOLVING FOR HEAD 
    25 ITERATIONS FOR TIME STEP   6 IN STRESS PERIOD   21

 MAXIMUM HEAD CHANGE FOR EACH ITERATION:

    HEAD CHANGE   HEAD CHANGE   HEAD CHANGE   HEAD CHANGE   HEAD CHANGE
  LAYER,ROW,COL LAYER,ROW,COL LAYER,ROW,COL LAYER,ROW,COL LAYER,ROW,COL
 ----------------------------------------------------------------------
     0.3457        0.6467        0.4564        -1.030        -1.077    
  (  3,  1,  7) (  3,  1, 10) (  3,  2,  1) (  3,  1, 10) (  3,  1,  1)
     0.4932        0.2915        0.8109E-01    0.2740E-01   -0.2640E-01
  (  3,  1, 10) (  3,  2,  2) (  2,  1,  9) (  2, 10,  1) (  2, 10, 10)
     0.2702E-01   -0.1089E-01   -0.8793E-02   -0.4473E-02   -0.2685E-02
  (  2,  7,  1) (  3,  2,  6) (  3,  2,  4) (  3,  2,  7) (  3,  2,  6)
    -0.2415E-02   -0.1797E-02   -0.1527E-02   -0.7498E-03   -0.4762E-03
  (  2,  7,  1) (  3,  2,  6) (  3,  3,  6) (  3,  3,  6) (  3,  3,  6)
    -0.3754E-03   -0.3160E-03   -0.2578E-03   -0.1362E-03   -0.7926E-04
  (  2,  8,  1) (  3,  2,  7) (  3,  3,  6) (  3,  3,  6) (  3,  3,  6)


 OUTPUT CONTROL FOR STRESS PERIOD   21   TIME STEP   6
    PRINT BUDGET
    PRINT HEAD FOR ALL LAYERS
    SAVE HEAD FOR ALL LAYERS
    SAVE DRAWDOWN FOR ALL LAYERS
1
              HEAD IN LAYER   1 AT END OF TIME STEP   6 IN STRESS PERIOD   21
  ---------------------------------------------------------------------------

           1       2       3       4       5       6       7       8       9      10
 ...................................................................................
   1    20.49   20.14   19.47   19.05   18.84   18.84   19.04   19.47   20.13   20.48
   2    19.47   18.97   18.54   18.24   18.09   18.09   18.24   18.53   18.96   19.47
   3    18.02   17.53   17.16   16.91   16.78   16.78   16.90   17.15   17.52   18.01
   4    16.05   15.61   15.31   15.12   15.03   15.02   15.12   15.31   15.60   16.04
   5    13.25   13.16   13.06   12.98   12.93   12.93   12.97   13.05   13.15   13.24
   6    10.79   10.77   10.73   10.69   10.67   10.67   10.69   10.72   10.76   10.79
   7     8.43    8.41    8.38    8.34    8.32    8.32    8.34    8.37    8.41    8.43
   8     6.15    6.10    6.01    5.93    5.88    5.88    5.93    6.01    6.10    6.15
   9     4.05    3.91    3.64    3.34    3.21    3.21    3.34    3.64    3.90    4.05
  10     2.55    2.18    1.38    0.00    0.00    0.00    0.00    1.38    2.18    2.55
1
              HEAD IN LAYER   2 AT END OF TIME STEP   6 IN STRESS PERIOD   21
  ---------------------------------------------------------------------------

           1       2       3       4       5       6       7       8       9      10
 ...................................................................................
   1    -2.88   -2.87   -2.87   -2.87   -2.89   -2.91   -2.92   -2.95   -2.97   -3.00
   2    -2.96   -2.00   -2.29   -2.78   -3.27   -3.65   -3.62   -3.28   -2.94   -3.16
   3    -3.09   -2.54   -3.03   -3.84   -5.00   -6.58   -6.19   -4.86   -3.91   -3.33
   4    -3.25   -2.85   -3.24   -3.84   -4.60   -5.45   -5.31   -4.59   -3.97   -3.50
   5    -3.44   -3.11   -3.27   -3.54   -3.83   -4.06   -4.09   -3.95   -3.79   -3.67
   6    -3.63   -3.33   -3.39   -3.50   -3.62   -3.71   -3.74   -3.73   -3.72   -3.83
   7    -3.84   -3.67   -3.70   -3.76   -3.82   -3.86   -3.88   -3.88   -3.89   -4.00
   8    -4.05   -4.16   -4.23   -4.30   -4.35   -4.37   -4.36   -4.33   -4.28   -4.18
   9    -4.26   -4.76   -4.96   -5.11   -5.18   -5.20   -5.15   -5.01   -4.83   -4.35
  10    -4.46   -4.50   -4.54   -4.57   -4.59   -4.59   -4.59   -4.57   -4.54   -4.51
1
              HEAD IN LAYER   3 AT END OF TIME STEP   6 IN STRESS PERIOD   21
  ---------------------------------------------------------------------------

           1       2       3       4       5       6       7       8       9      10
 ...................................................................................
   1   -22.26  -22.43  -22.74  -23.16  -23.60  -23.95  -24.11  -24.11  -24.04  -23.98
   2   -22.30  -22.56  -23.07  -23.80  -24.68  -25.45  -25.53  -25.13  -24.72  -24.49
   3   -22.02  -22.41  -23.24  -24.64  -26.87  -30.49  -29.64  -26.93  -25.46  -24.81
   4   -20.87  -21.19  -21.84  -22.86  -24.29  -26.16  -25.90  -24.55  -23.68  -23.25
   5   -19.13  -19.30  -19.64  -20.11  -20.65  -21.10  -21.19  -21.01  -20.79  -20.66
   6   -17.30  -17.38  -17.54  -17.74  -17.96  -18.13  -18.22  -18.23  -18.20  -18.18
   7   -15.70  -15.74  -15.81  -15.90  -16.00  -16.08  -16.14  -16.17  -16.19  -16.19
   8   -14.47  -14.49  -14.52  -14.57  -14.61  -14.66  -14.69  -14.72  -14.73  -14.74
   9   -13.64  -13.65  -13.67  -13.70  -13.72  -13.75  -13.77  -13.79  -13.80  -13.80
  10   -13.23  -13.24  -13.25  -13.26  -13.28  -13.30  -13.32  -13.33  -13.34  -13.34

 HEAD WILL BE SAVED ON UNIT   21 AT END OF TIME STEP   6, STRESS PERIOD   21

 DRAWDOWN WILL BE SAVED ON UNIT   22 AT END OF TIME STEP   6, STRESS PERIOD   21
1
  VOLUMETRIC BUDGET FOR ENTIRE MODEL AT END OF TIME STEP  6 IN STRESS PERIOD  21
  ------------------------------------------------------------------------------

     CUMULATIVE VOLUMES      L**3       RATES FOR THIS TIME STEP      L**3/T
     ------------------                 ------------------------

           IN:                                      IN:
           ---                                      ---
             STORAGE =    33133690.0000               STORAGE =        3562.0703
       CONSTANT HEAD =      355939.3750         CONSTANT HEAD =         110.0693
               WELLS =   219209984.0000                 WELLS =       30000.0000
    INST. IB STORAGE =    46971216.0000      INST. IB STORAGE =        5167.7739
    DELAY IB STORAGE =   114592656.0000      DELAY IB STORAGE =       15583.4873

            TOTAL IN =   414263488.0000              TOTAL IN =       54423.4023

          OUT:                                     OUT:
          ----                                     ----
             STORAGE =           0.0000               STORAGE =           0.0000
       CONSTANT HEAD =   195083744.0000         CONSTANT HEAD =       24423.4277
               WELLS =   219179984.0000                 WELLS =       30000.0000
    INST. IB STORAGE =           0.0000      INST. IB STORAGE =           0.0000
    DELAY IB STORAGE =          39.8223      DELAY IB STORAGE =           0.0000

           TOTAL OUT =   414263776.0000             TOTAL OUT =       54423.4297

            IN - OUT =        -288.0000              IN - OUT =      -2.7344E-02

 PERCENT DISCREPANCY =           0.00     PERCENT DISCREPANCY =           0.00






          TIME SUMMARY AT END OF TIME STEP   6 IN STRESS PERIOD   21
                    SECONDS     MINUTES      HOURS       DAYS        YEARS
                    -----------------------------------------------------------
   TIME STEP LENGTH 9.18681E+06 1.53113E+05  2551.9      106.33     0.29111    
 STRESS PERIOD TIME 3.15619E+07 5.26032E+05  8767.2      365.30      1.0001    
         TOTAL TIME 6.31325E+08 1.05221E+07 1.75368E+05  7307.0      20.005    
1

                               VOLUMETRIC BUDGET FOR SYSTEMS OF DELAY INTERBEDS
                                          AT END OF TIME STEP  6 IN STRESS PERIOD 21

          |   C U M U L A T I V E   V O L U M E S   L**3           | R A T E S   F O R  T H I S  T I M E  S T E P   L**3/T  |
   SYSTEM |    CHANGE IN     BOUNDARY                    PERCENT   |    CHANGE IN     BOUNDARY                    PERCENT   |
   NUMBER |     STORAGE        FLOW           SUM      DISCREPANCY |     STORAGE        FLOW           SUM      DISCREPANCY |
  --------|--------------------------------------------------------|--------------------------------------------------------|
      1     83836.        -83836.       -0.78125E-02   -0.93188E-05     8.7355        -8.7355       -0.95367E-06   -0.10917E-04
      2    0.11451E+09   -0.11451E+09    -16.000       -0.13973E-04     15575.        -15575.        0.97656E-03    0.62702E-05
  --------|--------------------------------------------------------|--------------------------------------------------------|
 TOTALS:    0.11459E+09   -0.11459E+09    -16.000       -0.13963E-04     15583.        -15583.        0.97656E-03    0.62666E-05
1
                            STRESS PERIOD NO.   22, LENGTH =   365.3000    
                            -----------------------------------------------

                              NUMBER OF TIME STEPS =     6

                               MULTIPLIER FOR DELT =     1.300

                            INITIAL TIME STEP SIZE =   28.63744    

 REUSING NON-PARAMETER WELLS FROM LAST STRESS PERIOD

     14 WELLS
 
 SOLVING FOR HEAD 

    35 ITERATIONS FOR TIME STEP   1 IN STRESS PERIOD   22

 OUTPUT CONTROL FOR STRESS PERIOD   22   TIME STEP   1
    SAVE HEAD FOR ALL LAYERS

 HEAD WILL BE SAVED ON UNIT   21 AT END OF TIME STEP   1, STRESS PERIOD   22
 
 SOLVING FOR HEAD 
    35 ITERATIONS FOR TIME STEP   2 IN STRESS PERIOD   22

 OUTPUT CONTROL FOR STRESS PERIOD   22   TIME STEP   2
    SAVE HEAD FOR ALL LAYERS

 HEAD WILL BE SAVED ON UNIT   21 AT END OF TIME STEP   2, STRESS PERIOD   22
 
 SOLVING FOR HEAD 
    31 ITERATIONS FOR TIME STEP   3 IN STRESS PERIOD   22

 OUTPUT CONTROL FOR STRESS PERIOD   22   TIME STEP   3
    SAVE HEAD FOR ALL LAYERS

 HEAD WILL BE SAVED ON UNIT   21 AT END OF TIME STEP   3, STRESS PERIOD   22
 
 SOLVING FOR HEAD 
    28 ITERATIONS FOR TIME STEP   4 IN STRESS PERIOD   22

 OUTPUT CONTROL FOR STRESS PERIOD   22   TIME STEP   4
    SAVE HEAD FOR ALL LAYERS

 HEAD WILL BE SAVED ON UNIT   21 AT END OF TIME STEP   4, STRESS PERIOD   22
 
 SOLVING FOR HEAD 
    25 ITERATIONS FOR TIME STEP   5 IN STRESS PERIOD   22

 MAXIMUM HEAD CHANGE FOR EACH ITERATION:

    HEAD CHANGE   HEAD CHANGE   HEAD CHANGE   HEAD CHANGE   HEAD CHANGE
  LAYER,ROW,COL LAYER,ROW,COL LAYER,ROW,COL LAYER,ROW,COL LAYER,ROW,COL
 ----------------------------------------------------------------------
     0.4778         1.110         1.030       -0.8855        -2.527    
  (  3,  1,  4) (  3,  1, 10) (  3,  2,  1) (  3,  2, 10) (  3,  1,  1)
     0.7122        0.4239        0.1439        0.7185E-01   -0.4850E-01
  (  3,  1, 10) (  3,  9,  3) (  2,  3,  6) (  2, 10,  1) (  2, 10, 10)
     0.7862E-01    0.1391E-01   -0.6666E-02   -0.3541E-02   -0.2359E-02
  (  2,  6,  1) (  2,  1,  2) (  3,  7,  3) (  3,  7,  1) (  3,  7,  1)
    -0.1980E-02   -0.1581E-02   -0.1218E-02   -0.6745E-03   -0.4247E-03
  (  2,  6,  1) (  3,  7,  2) (  3,  7,  1) (  3,  7,  1) (  3,  7,  1)
    -0.1800E-03   -0.2930E-03   -0.2324E-03   -0.1221E-03   -0.8086E-04
  (  3,  7,  1) (  3,  7,  2) (  3,  7,  3) (  3,  7,  1) (  3,  7,  1)


 OUTPUT CONTROL FOR STRESS PERIOD   22   TIME STEP   5
    SAVE HEAD FOR ALL LAYERS

 HEAD WILL BE SAVED ON UNIT   21 AT END OF TIME STEP   5, STRESS PERIOD   22
 
 SOLVING FOR HEAD 
    25 ITERATIONS FOR TIME STEP   6 IN STRESS PERIOD   22

 MAXIMUM HEAD CHANGE FOR EACH ITERATION:

    HEAD CHANGE   HEAD CHANGE   HEAD CHANGE   HEAD CHANGE   HEAD CHANGE
  LAYER,ROW,COL LAYER,ROW,COL LAYER,ROW,COL LAYER,ROW,COL LAYER,ROW,COL
 ----------------------------------------------------------------------
     0.4025        0.5074        0.4573       -0.9688        -1.064    
  (  3,  1, 10) (  3,  1,  4) (  3,  2,  1) (  3,  2, 10) (  3,  1,  1)
     0.4778        0.2821        0.8313E-01    0.2651E-01   -0.2569E-01
  (  3,  1, 10) (  3,  2,  2) (  2,  3,  6) (  2, 10,  1) (  2, 10, 10)
     0.2570E-01   -0.1071E-01   -0.8675E-02   -0.4389E-02   -0.2654E-02
  (  2,  7,  1) (  3,  2,  6) (  3,  2,  4) (  3,  2,  6) (  3,  2,  6)
    -0.2245E-02   -0.1770E-02   -0.1502E-02   -0.7374E-03   -0.4649E-03
  (  2,  7,  1) (  3,  2,  5) (  3,  3,  5) (  3,  3,  6) (  3,  3,  6)
    -0.3619E-03   -0.3104E-03   -0.2533E-03   -0.1325E-03   -0.7720E-04
  (  2,  8,  1) (  3,  2,  6) (  3,  3,  6) (  3,  3,  6) (  3,  2,  6)


 OUTPUT CONTROL FOR STRESS PERIOD   22   TIME STEP   6
    PRINT BUDGET
    PRINT HEAD FOR ALL LAYERS
    SAVE HEAD FOR ALL LAYERS
    SAVE DRAWDOWN FOR ALL LAYERS
1
              HEAD IN LAYER   1 AT END OF TIME STEP   6 IN STRESS PERIOD   22
  ---------------------------------------------------------------------------

           1       2       3       4       5       6       7       8       9      10
 ...................................................................................
   1    20.40   20.05   19.38   18.96   18.75   18.75   18.95   19.37   20.04   20.39
   2    19.39   18.88   18.45   18.15   18.00   18.00   18.15   18.44   18.87   19.38
   3    17.94   17.44   17.07   16.82   16.69   16.69   16.81   17.06   17.43   17.93
   4    15.97   15.53   15.23   15.04   14.94   14.94   15.03   15.22   15.52   15.96
   5    13.18   13.09   12.98   12.90   12.86   12.85   12.90   12.98   13.08   13.17
   6    10.73   10.70   10.66   10.62   10.60   10.60   10.62   10.66   10.69   10.72
   7     8.38    8.36    8.32    8.29    8.27    8.27    8.29    8.32    8.35    8.37
   8     6.10    6.05    5.97    5.89    5.84    5.84    5.88    5.97    6.05    6.10
   9     4.02    3.88    3.61    3.31    3.19    3.19    3.31    3.61    3.87    4.02
  10     2.53    2.16    1.37    0.00    0.00    0.00    0.00    1.37    2.16    2.53
1
              HEAD IN LAYER   2 AT END OF TIME STEP   6 IN STRESS PERIOD   22
  ---------------------------------------------------------------------------

           1       2       3       4       5       6       7       8       9      10
 ...................................................................................
   1    -3.18   -3.17   -3.17   -3.18   -3.20   -3.21   -3.23   -3.25   -3.28   -3.31
   2    -3.27   -2.32   -2.62   -3.11   -3.60   -3.98   -3.95   -3.61   -3.26   -3.46
   3    -3.39   -2.86   -3.35   -4.17   -5.33   -6.90   -6.51   -5.18   -4.23   -3.63
   4    -3.55   -3.16   -3.56   -4.16   -4.92   -5.77   -5.62   -4.91   -4.28   -3.80
   5    -3.72   -3.41   -3.57   -3.84   -4.13   -4.36   -4.39   -4.25   -4.08   -3.96
   6    -3.92   -3.62   -3.67   -3.79   -3.91   -3.99   -4.03   -4.02   -4.00   -4.12
   7    -4.12   -3.94   -3.97   -4.03   -4.09   -4.13   -4.15   -4.15   -4.16   -4.28
   8    -4.32   -4.42   -4.49   -4.55   -4.60   -4.62   -4.62   -4.59   -4.54   -4.45
   9    -4.53   -5.00   -5.20   -5.35   -5.42   -5.44   -5.39   -5.26   -5.08   -4.62
  10    -4.72   -4.77   -4.80   -4.83   -4.85   -4.86   -4.85   -4.83   -4.80   -4.77
1
              HEAD IN LAYER   3 AT END OF TIME STEP   6 IN STRESS PERIOD   22
  ---------------------------------------------------------------------------

           1       2       3       4       5       6       7       8       9      10
 ...................................................................................
   1   -22.83  -23.00  -23.32  -23.74  -24.18  -24.53  -24.69  -24.69  -24.62  -24.56
   2   -22.87  -23.13  -23.64  -24.38  -25.25  -26.03  -26.11  -25.71  -25.30  -25.06
   3   -22.58  -22.97  -23.80  -25.20  -27.43  -31.05  -30.20  -27.50  -26.03  -25.37
   4   -21.42  -21.73  -22.38  -23.40  -24.84  -26.71  -26.45  -25.10  -24.22  -23.79
   5   -19.65  -19.83  -20.16  -20.64  -21.17  -21.63  -21.72  -21.53  -21.32  -21.19
   6   -17.80  -17.88  -18.04  -18.24  -18.46  -18.63  -18.72  -18.73  -18.71  -18.69
   7   -16.18  -16.22  -16.29  -16.38  -16.48  -16.56  -16.62  -16.65  -16.67  -16.67
   8   -14.93  -14.95  -14.98  -15.03  -15.08  -15.12  -15.16  -15.18  -15.20  -15.21
   9   -14.09  -14.10  -14.12  -14.15  -14.17  -14.20  -14.22  -14.24  -14.25  -14.26
  10   -13.67  -13.68  -13.69  -13.71  -13.73  -13.75  -13.76  -13.78  -13.78  -13.79

 HEAD WILL BE SAVED ON UNIT   21 AT END OF TIME STEP   6, STRESS PERIOD   22

 DRAWDOWN WILL BE SAVED ON UNIT   22 AT END OF TIME STEP   6, STRESS PERIOD   22
1
  VOLUMETRIC BUDGET FOR ENTIRE MODEL AT END OF TIME STEP  6 IN STRESS PERIOD  22
  ------------------------------------------------------------------------------

     CUMULATIVE VOLUMES      L**3       RATES FOR THIS TIME STEP      L**3/T
     ------------------                 ------------------------

           IN:                                      IN:
           ---                                      ---
             STORAGE =    34420268.0000               STORAGE =        3496.4995
       CONSTANT HEAD =      397518.4062         CONSTANT HEAD =         116.3328
               WELLS =   230168976.0000                 WELLS =       30000.0000
    INST. IB STORAGE =    48852592.0000      INST. IB STORAGE =        5133.5400
    DELAY IB STORAGE =   120262504.0000      DELAY IB STORAGE =       15482.8965

            TOTAL IN =   434101856.0000              TOTAL IN =       54229.2695

          OUT:                                     OUT:
          ----                                     ----
             STORAGE =           0.0000               STORAGE =           0.0000
       CONSTANT HEAD =   203963040.0000         CONSTANT HEAD =       24229.2949
               WELLS =   230138976.0000                 WELLS =       30000.0000
    INST. IB STORAGE =           0.0000      INST. IB STORAGE =           0.0000
    DELAY IB STORAGE =          39.8223      DELAY IB STORAGE =           0.0000

           TOTAL OUT =   434102048.0000             TOTAL OUT =       54229.2969

            IN - OUT =        -192.0000              IN - OUT =      -2.7344E-02

 PERCENT DISCREPANCY =           0.00     PERCENT DISCREPANCY =           0.00






          TIME SUMMARY AT END OF TIME STEP   6 IN STRESS PERIOD   22
                    SECONDS     MINUTES      HOURS       DAYS        YEARS
                    -----------------------------------------------------------
   TIME STEP LENGTH 9.18681E+06 1.53113E+05  2551.9      106.33     0.29111    
 STRESS PERIOD TIME 3.15619E+07 5.26032E+05  8767.2      365.30      1.0001    
         TOTAL TIME 6.62887E+08 1.10481E+07 1.84135E+05  7672.3      21.006    
1

                               VOLUMETRIC BUDGET FOR SYSTEMS OF DELAY INTERBEDS
                                          AT END OF TIME STEP  6 IN STRESS PERIOD 22

          |   C U M U L A T I V E   V O L U M E S   L**3           | R A T E S   F O R  T H I S  T I M E  S T E P   L**3/T  |
   SYSTEM |    CHANGE IN     BOUNDARY                    PERCENT   |    CHANGE IN     BOUNDARY                    PERCENT   |
   NUMBER |     STORAGE        FLOW           SUM      DISCREPANCY |     STORAGE        FLOW           SUM      DISCREPANCY |
  --------|--------------------------------------------------------|--------------------------------------------------------|
      1     87234.        -87234.       -0.15625E-01   -0.17912E-04     8.5621        -8.5621        0.38147E-05    0.44553E-04
      2    0.12018E+09   -0.12018E+09    -16.000       -0.13314E-04     15474.        -15474.       -0.48828E-02   -0.31554E-04
  --------|--------------------------------------------------------|--------------------------------------------------------|
 TOTALS:    0.12026E+09   -0.12026E+09    -16.000       -0.13304E-04     15483.        -15483.       -0.48828E-02   -0.31537E-04
1
                            STRESS PERIOD NO.   23, LENGTH =   365.3000    
                            -----------------------------------------------

                              NUMBER OF TIME STEPS =     6

                               MULTIPLIER FOR DELT =     1.300

                            INITIAL TIME STEP SIZE =   28.63744    

 REUSING NON-PARAMETER WELLS FROM LAST STRESS PERIOD

     14 WELLS
 
 SOLVING FOR HEAD 

    37 ITERATIONS FOR TIME STEP   1 IN STRESS PERIOD   23

 OUTPUT CONTROL FOR STRESS PERIOD   23   TIME STEP   1
    SAVE HEAD FOR ALL LAYERS

 HEAD WILL BE SAVED ON UNIT   21 AT END OF TIME STEP   1, STRESS PERIOD   23
 
 SOLVING FOR HEAD 
    35 ITERATIONS FOR TIME STEP   2 IN STRESS PERIOD   23

 OUTPUT CONTROL FOR STRESS PERIOD   23   TIME STEP   2
    SAVE HEAD FOR ALL LAYERS

 HEAD WILL BE SAVED ON UNIT   21 AT END OF TIME STEP   2, STRESS PERIOD   23
 
 SOLVING FOR HEAD 
    33 ITERATIONS FOR TIME STEP   3 IN STRESS PERIOD   23

 OUTPUT CONTROL FOR STRESS PERIOD   23   TIME STEP   3
    SAVE HEAD FOR ALL LAYERS

 HEAD WILL BE SAVED ON UNIT   21 AT END OF TIME STEP   3, STRESS PERIOD   23
 
 SOLVING FOR HEAD 
    28 ITERATIONS FOR TIME STEP   4 IN STRESS PERIOD   23

 OUTPUT CONTROL FOR STRESS PERIOD   23   TIME STEP   4
    SAVE HEAD FOR ALL LAYERS

 HEAD WILL BE SAVED ON UNIT   21 AT END OF TIME STEP   4, STRESS PERIOD   23
 
 SOLVING FOR HEAD 
    25 ITERATIONS FOR TIME STEP   5 IN STRESS PERIOD   23

 MAXIMUM HEAD CHANGE FOR EACH ITERATION:

    HEAD CHANGE   HEAD CHANGE   HEAD CHANGE   HEAD CHANGE   HEAD CHANGE
  LAYER,ROW,COL LAYER,ROW,COL LAYER,ROW,COL LAYER,ROW,COL LAYER,ROW,COL
 ----------------------------------------------------------------------
     0.4850         1.121         1.046       -0.8866        -2.491    
  (  3,  1,  5) (  3,  1, 10) (  3,  1,  1) (  3,  1,  8) (  3,  1,  1)
     0.7118        0.4089        0.1375        0.7087E-01   -0.4813E-01
  (  3,  1, 10) (  3,  9,  3) (  2,  1,  8) (  2, 10,  1) (  2, 10, 10)
     0.7784E-01    0.1338E-01   -0.6346E-02   -0.3321E-02   -0.2202E-02
  (  2,  6,  1) (  2,  1,  2) (  3,  6,  3) (  3,  7,  2) (  3,  7,  3)
    -0.2001E-02   -0.1489E-02   -0.1159E-02   -0.6306E-03   -0.3956E-03
  (  2,  6,  1) (  3,  7,  3) (  3,  7,  3) (  3,  7,  3) (  3,  6,  3)
    -0.1553E-03   -0.2759E-03   -0.2203E-03   -0.1140E-03   -0.7228E-04
  (  3,  8,  1) (  3,  8,  3) (  3,  7,  4) (  3,  6,  3) (  3,  7,  3)


 OUTPUT CONTROL FOR STRESS PERIOD   23   TIME STEP   5
    SAVE HEAD FOR ALL LAYERS

 HEAD WILL BE SAVED ON UNIT   21 AT END OF TIME STEP   5, STRESS PERIOD   23
 
 SOLVING FOR HEAD 
    25 ITERATIONS FOR TIME STEP   6 IN STRESS PERIOD   23

 MAXIMUM HEAD CHANGE FOR EACH ITERATION:

    HEAD CHANGE   HEAD CHANGE   HEAD CHANGE   HEAD CHANGE   HEAD CHANGE
  LAYER,ROW,COL LAYER,ROW,COL LAYER,ROW,COL LAYER,ROW,COL LAYER,ROW,COL
 ----------------------------------------------------------------------
     0.3125        0.5395        0.4510       -0.9615        -1.049    
  (  3,  1, 10) (  3,  1,  9) (  3,  2,  1) (  3,  1, 10) (  3,  1,  1)
     0.4760        0.2812        0.7872E-01    0.2685E-01   -0.2587E-01
  (  3,  1, 10) (  3,  2,  2) (  2,  1,  9) (  2, 10,  1) (  2, 10, 10)
     0.2631E-01   -0.1065E-01   -0.8584E-02   -0.4377E-02   -0.2624E-02
  (  2,  7,  1) (  3,  2,  7) (  3,  2,  4) (  3,  2,  7) (  3,  2,  6)
    -0.2277E-02   -0.1756E-02   -0.1492E-02   -0.7249E-03   -0.4622E-03
  (  2,  7,  1) (  3,  2,  6) (  3,  2,  6) (  3,  3,  6) (  3,  2,  7)
    -0.3528E-03   -0.3098E-03   -0.2485E-03   -0.1310E-03   -0.7586E-04
  (  2,  8,  1) (  3,  2,  7) (  3,  3,  6) (  3,  3,  6) (  3,  2,  6)


 OUTPUT CONTROL FOR STRESS PERIOD   23   TIME STEP   6
    PRINT BUDGET
    PRINT HEAD FOR ALL LAYERS
    SAVE HEAD FOR ALL LAYERS
    SAVE DRAWDOWN FOR ALL LAYERS
1
              HEAD IN LAYER   1 AT END OF TIME STEP   6 IN STRESS PERIOD   23
  ---------------------------------------------------------------------------

           1       2       3       4       5       6       7       8       9      10
 ...................................................................................
   1    20.31   19.96   19.29   18.87   18.66   18.66   18.86   19.29   19.95   20.30
   2    19.30   18.79   18.36   18.06   17.91   17.91   18.06   18.36   18.78   19.29
   3    17.85   17.36   16.98   16.73   16.61   16.60   16.73   16.97   17.34   17.84
   4    15.89   15.45   15.15   14.96   14.86   14.86   14.95   15.14   15.44   15.88
   5    13.10   13.01   12.91   12.83   12.78   12.78   12.82   12.90   13.01   13.09
   6    10.66   10.63   10.60   10.56   10.54   10.54   10.56   10.59   10.63   10.65
   7     8.32    8.30    8.27    8.23    8.21    8.21    8.23    8.26    8.30    8.32
   8     6.06    6.01    5.93    5.84    5.80    5.79    5.84    5.93    6.01    6.06
   9     3.99    3.85    3.58    3.29    3.17    3.17    3.29    3.58    3.84    3.99
  10     2.51    2.15    1.36    0.00    0.00    0.00    0.00    1.36    2.15    2.51
1
              HEAD IN LAYER   2 AT END OF TIME STEP   6 IN STRESS PERIOD   23
  ---------------------------------------------------------------------------

           1       2       3       4       5       6       7       8       9      10
 ...................................................................................
   1    -3.49   -3.48   -3.48   -3.49   -3.50   -3.52   -3.54   -3.56   -3.58   -3.61
   2    -3.57   -2.64   -2.94   -3.43   -3.93   -4.30   -4.27   -3.94   -3.59   -3.76
   3    -3.69   -3.17   -3.67   -4.48   -5.64   -7.02   -6.82   -5.50   -4.55   -3.93
   4    -3.84   -3.47   -3.87   -4.47   -5.23   -6.07   -5.93   -5.22   -4.59   -4.09
   5    -4.01   -3.70   -3.87   -4.14   -4.43   -4.66   -4.68   -4.55   -4.38   -4.24
   6    -4.20   -3.90   -3.95   -4.07   -4.19   -4.28   -4.31   -4.30   -4.29   -4.40
   7    -4.39   -4.21   -4.23   -4.29   -4.35   -4.40   -4.42   -4.42   -4.43   -4.56
   8    -4.60   -4.67   -4.74   -4.80   -4.85   -4.88   -4.87   -4.84   -4.80   -4.72
   9    -4.80   -5.25   -5.44   -5.59   -5.66   -5.68   -5.63   -5.50   -5.32   -4.88
  10    -4.99   -5.03   -5.07   -5.09   -5.11   -5.12   -5.11   -5.09   -5.06   -5.03
1
              HEAD IN LAYER   3 AT END OF TIME STEP   6 IN STRESS PERIOD   23
  ---------------------------------------------------------------------------

           1       2       3       4       5       6       7       8       9      10
 ...................................................................................
   1   -23.40  -23.57  -23.89  -24.31  -24.75  -25.10  -25.26  -25.26  -25.19  -25.13
   2   -23.43  -23.69  -24.20  -24.94  -25.81  -26.59  -26.67  -26.27  -25.86  -25.63
   3   -23.13  -23.52  -24.35  -25.75  -27.99  -31.60  -30.75  -28.05  -26.58  -25.93
   4   -21.95  -22.27  -22.92  -23.94  -25.38  -27.25  -26.99  -25.64  -24.76  -24.33
   5   -20.17  -20.34  -20.68  -21.16  -21.69  -22.15  -22.24  -22.05  -21.84  -21.71
   6   -18.30  -18.38  -18.54  -18.74  -18.96  -19.13  -19.22  -19.23  -19.21  -19.19
   7   -16.66  -16.70  -16.77  -16.86  -16.96  -17.04  -17.10  -17.14  -17.15  -17.15
   8   -15.40  -15.41  -15.45  -15.49  -15.54  -15.59  -15.62  -15.65  -15.66  -15.67
   9   -14.55  -14.56  -14.58  -14.60  -14.63  -14.65  -14.68  -14.69  -14.70  -14.71
  10   -14.12  -14.13  -14.14  -14.16  -14.17  -14.19  -14.21  -14.22  -14.23  -14.24

 HEAD WILL BE SAVED ON UNIT   21 AT END OF TIME STEP   6, STRESS PERIOD   23

 DRAWDOWN WILL BE SAVED ON UNIT   22 AT END OF TIME STEP   6, STRESS PERIOD   23
1
  VOLUMETRIC BUDGET FOR ENTIRE MODEL AT END OF TIME STEP  6 IN STRESS PERIOD  23
  ------------------------------------------------------------------------------

     CUMULATIVE VOLUMES      L**3       RATES FOR THIS TIME STEP      L**3/T
     ------------------                 ------------------------

           IN:                                      IN:
           ---                                      ---
             STORAGE =    35683188.0000               STORAGE =        3432.0125
       CONSTANT HEAD =      441382.3125         CONSTANT HEAD =         122.5810
               WELLS =   241127968.0000                 WELLS =       30000.0000
    INST. IB STORAGE =    50722160.0000      INST. IB STORAGE =        5104.2324
    DELAY IB STORAGE =   125895240.0000      DELAY IB STORAGE =       15379.5244

            TOTAL IN =   453869952.0000              TOTAL IN =       54038.3516

          OUT:                                     OUT:
          ----                                     ----
             STORAGE =           0.0000               STORAGE =           0.0000
       CONSTANT HEAD =   212772144.0000         CONSTANT HEAD =       24038.3906
               WELLS =   241097968.0000                 WELLS =       30000.0000
    INST. IB STORAGE =           0.0000      INST. IB STORAGE =           0.0000
    DELAY IB STORAGE =          39.8223      DELAY IB STORAGE =           0.0000

           TOTAL OUT =   453870144.0000             TOTAL OUT =       54038.3906

            IN - OUT =        -192.0000              IN - OUT =      -3.9062E-02

 PERCENT DISCREPANCY =           0.00     PERCENT DISCREPANCY =           0.00






          TIME SUMMARY AT END OF TIME STEP   6 IN STRESS PERIOD   23
                    SECONDS     MINUTES      HOURS       DAYS        YEARS
                    -----------------------------------------------------------
   TIME STEP LENGTH 9.18681E+06 1.53113E+05  2551.9      106.33     0.29111    
 STRESS PERIOD TIME 3.15619E+07 5.26032E+05  8767.2      365.30      1.0001    
         TOTAL TIME 6.94449E+08 1.15741E+07 1.92902E+05  8037.6      22.006    
1

                               VOLUMETRIC BUDGET FOR SYSTEMS OF DELAY INTERBEDS
                                          AT END OF TIME STEP  6 IN STRESS PERIOD 23

          |   C U M U L A T I V E   V O L U M E S   L**3           | R A T E S   F O R  T H I S  T I M E  S T E P   L**3/T  |
   SYSTEM |    CHANGE IN     BOUNDARY                    PERCENT   |    CHANGE IN     BOUNDARY                    PERCENT   |
   NUMBER |     STORAGE        FLOW           SUM      DISCREPANCY |     STORAGE        FLOW           SUM      DISCREPANCY |
  --------|--------------------------------------------------------|--------------------------------------------------------|
      1     90572.        -90572.       -0.15625E-01   -0.17252E-04     8.3805        -8.3805         0.0000         0.0000    
      2    0.12580E+09   -0.12580E+09    -16.000       -0.12718E-04     15371.        -15371.       -0.29297E-02   -0.19060E-04
  --------|--------------------------------------------------------|--------------------------------------------------------|
 TOTALS:    0.12590E+09   -0.12590E+09    -16.000       -0.12709E-04     15380.        -15380.       -0.29297E-02   -0.19049E-04
1
                            STRESS PERIOD NO.   24, LENGTH =   365.3000    
                            -----------------------------------------------

                              NUMBER OF TIME STEPS =     6

                               MULTIPLIER FOR DELT =     1.300

                            INITIAL TIME STEP SIZE =   28.63744    

 REUSING NON-PARAMETER WELLS FROM LAST STRESS PERIOD

     14 WELLS
 
 SOLVING FOR HEAD 

    36 ITERATIONS FOR TIME STEP   1 IN STRESS PERIOD   24

 OUTPUT CONTROL FOR STRESS PERIOD   24   TIME STEP   1
    SAVE HEAD FOR ALL LAYERS

 HEAD WILL BE SAVED ON UNIT   21 AT END OF TIME STEP   1, STRESS PERIOD   24
 
 SOLVING FOR HEAD 
    34 ITERATIONS FOR TIME STEP   2 IN STRESS PERIOD   24

 OUTPUT CONTROL FOR STRESS PERIOD   24   TIME STEP   2
    SAVE HEAD FOR ALL LAYERS

 HEAD WILL BE SAVED ON UNIT   21 AT END OF TIME STEP   2, STRESS PERIOD   24
 
 SOLVING FOR HEAD 
    34 ITERATIONS FOR TIME STEP   3 IN STRESS PERIOD   24

 OUTPUT CONTROL FOR STRESS PERIOD   24   TIME STEP   3
    SAVE HEAD FOR ALL LAYERS

 HEAD WILL BE SAVED ON UNIT   21 AT END OF TIME STEP   3, STRESS PERIOD   24
 
 SOLVING FOR HEAD 
    28 ITERATIONS FOR TIME STEP   4 IN STRESS PERIOD   24

 OUTPUT CONTROL FOR STRESS PERIOD   24   TIME STEP   4
    SAVE HEAD FOR ALL LAYERS

 HEAD WILL BE SAVED ON UNIT   21 AT END OF TIME STEP   4, STRESS PERIOD   24
 
 SOLVING FOR HEAD 
    25 ITERATIONS FOR TIME STEP   5 IN STRESS PERIOD   24

 MAXIMUM HEAD CHANGE FOR EACH ITERATION:

    HEAD CHANGE   HEAD CHANGE   HEAD CHANGE   HEAD CHANGE   HEAD CHANGE
  LAYER,ROW,COL LAYER,ROW,COL LAYER,ROW,COL LAYER,ROW,COL LAYER,ROW,COL
 ----------------------------------------------------------------------
     0.6049        0.9249        0.9572       -0.8674        -2.415    
  (  3,  1, 10) (  3,  2,  7) (  3,  2,  2) (  3,  2, 10) (  3,  1,  1)
     0.6938        0.3942        0.1331        0.6840E-01   -0.4683E-01
  (  3,  1, 10) (  3,  9,  3) (  2,  1,  8) (  2, 10,  1) (  2, 10, 10)
     0.7566E-01    0.1298E-01   -0.6229E-02   -0.3308E-02   -0.2170E-02
  (  2,  6,  1) (  2,  1,  2) (  3,  7,  3) (  3,  7,  2) (  3,  7,  2)
    -0.1908E-02   -0.1473E-02   -0.1149E-02   -0.6208E-03   -0.3962E-03
  (  2,  6,  1) (  3,  7,  2) (  3,  7,  2) (  3,  7,  2) (  3,  7,  2)
    -0.1534E-03   -0.2738E-03   -0.2152E-03   -0.1144E-03   -0.7070E-04
  (  3,  8,  1) (  3,  7,  2) (  3,  7,  3) (  3,  7,  2) (  3,  7,  2)


 OUTPUT CONTROL FOR STRESS PERIOD   24   TIME STEP   5
    SAVE HEAD FOR ALL LAYERS

 HEAD WILL BE SAVED ON UNIT   21 AT END OF TIME STEP   5, STRESS PERIOD   24
 
 SOLVING FOR HEAD 
    25 ITERATIONS FOR TIME STEP   6 IN STRESS PERIOD   24

 MAXIMUM HEAD CHANGE FOR EACH ITERATION:

    HEAD CHANGE   HEAD CHANGE   HEAD CHANGE   HEAD CHANGE   HEAD CHANGE
  LAYER,ROW,COL LAYER,ROW,COL LAYER,ROW,COL LAYER,ROW,COL LAYER,ROW,COL
 ----------------------------------------------------------------------
     0.3919        0.4994        0.4080       -0.9633        -1.014    
  (  3,  1,  1) (  3,  2,  9) (  3,  3,  5) (  3,  1, 10) (  3,  1,  1)
     0.4747        0.2807        0.7831E-01    0.2653E-01   -0.2610E-01
  (  3,  1, 10) (  3,  2,  2) (  2,  1,  9) (  2, 10,  1) (  2, 10, 10)
     0.2643E-01   -0.1066E-01   -0.8580E-02   -0.4378E-02   -0.2623E-02
  (  2,  7,  1) (  3,  2,  7) (  3,  2,  4) (  3,  2,  6) (  3,  2,  6)
    -0.2291E-02   -0.1756E-02   -0.1494E-02   -0.7303E-03   -0.4641E-03
  (  2,  7,  1) (  3,  2,  6) (  3,  2,  6) (  3,  3,  6) (  3,  3,  6)
    -0.3696E-03   -0.3092E-03   -0.2508E-03   -0.1319E-03   -0.7654E-04
  (  2,  8,  1) (  3,  2,  7) (  3,  3,  6) (  3,  3,  6) (  3,  2,  6)


 OUTPUT CONTROL FOR STRESS PERIOD   24   TIME STEP   6
    PRINT BUDGET
    PRINT HEAD FOR ALL LAYERS
    SAVE HEAD FOR ALL LAYERS
    SAVE DRAWDOWN FOR ALL LAYERS
1
              HEAD IN LAYER   1 AT END OF TIME STEP   6 IN STRESS PERIOD   24
  ---------------------------------------------------------------------------

           1       2       3       4       5       6       7       8       9      10
 ...................................................................................
   1    20.23   19.87   19.20   18.78   18.57   18.57   18.78   19.20   19.87   20.22
   2    19.21   18.71   18.28   17.98   17.82   17.82   17.97   18.27   18.70   19.20
   3    17.77   17.27   16.90   16.65   16.52   16.52   16.64   16.89   17.26   17.76
   4    15.81   15.37   15.07   14.88   14.78   14.78   14.87   15.06   15.36   15.80
   5    13.03   12.94   12.84   12.75   12.71   12.71   12.75   12.83   12.93   13.02
   6    10.60   10.57   10.53   10.49   10.47   10.47   10.49   10.53   10.56   10.59
   7     8.27    8.25    8.21    8.18    8.16    8.16    8.18    8.21    8.24    8.26
   8     6.02    5.97    5.89    5.80    5.75    5.75    5.80    5.88    5.97    6.02
   9     3.96    3.82    3.56    3.26    3.14    3.14    3.26    3.56    3.82    3.96
  10     2.49    2.13    1.35    0.00    0.00    0.00    0.00    1.35    2.13    2.49
1
              HEAD IN LAYER   2 AT END OF TIME STEP   6 IN STRESS PERIOD   24
  ---------------------------------------------------------------------------

           1       2       3       4       5       6       7       8       9      10
 ...................................................................................
   1    -3.79   -3.78   -3.78   -3.79   -3.80   -3.82   -3.84   -3.86   -3.88   -3.91
   2    -3.86   -2.96   -3.26   -3.75   -4.25   -4.62   -4.59   -4.26   -3.90   -4.06
   3    -3.98   -3.48   -3.98   -4.80   -5.93   -7.09   -7.01   -5.81   -4.86   -4.22
   4    -4.13   -3.77   -4.17   -4.77   -5.53   -6.37   -6.24   -5.52   -4.90   -4.38
   5    -4.30   -3.99   -4.16   -4.44   -4.73   -4.95   -4.98   -4.85   -4.67   -4.53
   6    -4.48   -4.18   -4.23   -4.35   -4.47   -4.56   -4.59   -4.58   -4.57   -4.68
   7    -4.67   -4.48   -4.50   -4.56   -4.62   -4.66   -4.68   -4.68   -4.69   -4.83
   8    -4.87   -4.93   -4.99   -5.06   -5.11   -5.13   -5.12   -5.09   -5.05   -4.99
   9    -5.06   -5.50   -5.68   -5.83   -5.90   -5.92   -5.87   -5.74   -5.57   -5.15
  10    -5.25   -5.29   -5.33   -5.35   -5.37   -5.38   -5.37   -5.35   -5.32   -5.29
1
              HEAD IN LAYER   3 AT END OF TIME STEP   6 IN STRESS PERIOD   24
  ---------------------------------------------------------------------------

           1       2       3       4       5       6       7       8       9      10
 ...................................................................................
   1   -23.96  -24.13  -24.45  -24.87  -25.31  -25.66  -25.83  -25.82  -25.75  -25.69
   2   -23.99  -24.25  -24.76  -25.50  -26.37  -27.15  -27.23  -26.83  -26.42  -26.19
   3   -23.67  -24.06  -24.90  -26.30  -28.54  -32.15  -31.30  -28.60  -27.13  -26.47
   4   -22.48  -22.80  -23.45  -24.47  -25.91  -27.78  -27.52  -26.17  -25.30  -24.87
   5   -20.68  -20.86  -21.20  -21.67  -22.21  -22.66  -22.75  -22.57  -22.35  -22.22
   6   -18.79  -18.88  -19.03  -19.24  -19.45  -19.63  -19.72  -19.73  -19.71  -19.68
   7   -17.14  -17.18  -17.25  -17.34  -17.44  -17.52  -17.58  -17.62  -17.63  -17.63
   8   -15.86  -15.88  -15.91  -15.96  -16.01  -16.05  -16.09  -16.11  -16.13  -16.14
   9   -15.00  -15.01  -15.03  -15.05  -15.08  -15.11  -15.13  -15.15  -15.16  -15.16
  10   -14.57  -14.58  -14.59  -14.61  -14.62  -14.64  -14.66  -14.67  -14.68  -14.69

 HEAD WILL BE SAVED ON UNIT   21 AT END OF TIME STEP   6, STRESS PERIOD   24

 DRAWDOWN WILL BE SAVED ON UNIT   22 AT END OF TIME STEP   6, STRESS PERIOD   24
1
  VOLUMETRIC BUDGET FOR ENTIRE MODEL AT END OF TIME STEP  6 IN STRESS PERIOD  24
  ------------------------------------------------------------------------------

     CUMULATIVE VOLUMES      L**3       RATES FOR THIS TIME STEP      L**3/T
     ------------------                 ------------------------

           IN:                                      IN:
           ---                                      ---
             STORAGE =    36922840.0000               STORAGE =        3368.7979
       CONSTANT HEAD =      487524.5625         CONSTANT HEAD =         128.8096
               WELLS =   252086960.0000                 WELLS =       30000.0000
    INST. IB STORAGE =    52580504.0000      INST. IB STORAGE =        5072.6382
    DELAY IB STORAGE =   131491112.0000      DELAY IB STORAGE =       15280.3232

            TOTAL IN =   473568928.0000              TOTAL IN =       53850.5703

          OUT:                                     OUT:
          ----                                     ----
             STORAGE =           0.0000               STORAGE =           0.0000
       CONSTANT HEAD =   221512160.0000         CONSTANT HEAD =       23850.6094
               WELLS =   252056960.0000                 WELLS =       30000.0000
    INST. IB STORAGE =           0.0000      INST. IB STORAGE =           0.0000
    DELAY IB STORAGE =          39.8223      DELAY IB STORAGE =           0.0000

           TOTAL OUT =   473569152.0000             TOTAL OUT =       53850.6094

            IN - OUT =        -224.0000              IN - OUT =      -3.9062E-02

 PERCENT DISCREPANCY =           0.00     PERCENT DISCREPANCY =           0.00






          TIME SUMMARY AT END OF TIME STEP   6 IN STRESS PERIOD   24
                    SECONDS     MINUTES      HOURS       DAYS        YEARS
                    -----------------------------------------------------------
   TIME STEP LENGTH 9.18681E+06 1.53113E+05  2551.9      106.33     0.29111    
 STRESS PERIOD TIME 3.15619E+07 5.26032E+05  8767.2      365.30      1.0001    
         TOTAL TIME 7.26010E+08 1.21002E+07 2.01670E+05  8402.9      23.006    
1

                               VOLUMETRIC BUDGET FOR SYSTEMS OF DELAY INTERBEDS
                                          AT END OF TIME STEP  6 IN STRESS PERIOD 24

          |   C U M U L A T I V E   V O L U M E S   L**3           | R A T E S   F O R  T H I S  T I M E  S T E P   L**3/T  |
   SYSTEM |    CHANGE IN     BOUNDARY                    PERCENT   |    CHANGE IN     BOUNDARY                    PERCENT   |
   NUMBER |     STORAGE        FLOW           SUM      DISCREPANCY |     STORAGE        FLOW           SUM      DISCREPANCY |
  --------|--------------------------------------------------------|--------------------------------------------------------|
      1     93846.        -93846.       -0.15625E-01   -0.16650E-04     8.2495        -8.2495        0.95367E-06    0.11560E-04
      2    0.13140E+09   -0.13140E+09    -16.000       -0.12177E-04     15272.        -15272.       -0.19531E-02   -0.12789E-04
  --------|--------------------------------------------------------|--------------------------------------------------------|
 TOTALS:    0.13149E+09   -0.13149E+09    -16.000       -0.12168E-04     15280.        -15280.       -0.19531E-02   -0.12782E-04
1
                            STRESS PERIOD NO.   25, LENGTH =   365.3000    
                            -----------------------------------------------

                              NUMBER OF TIME STEPS =     6

                               MULTIPLIER FOR DELT =     1.300

                            INITIAL TIME STEP SIZE =   28.63744    

 REUSING NON-PARAMETER WELLS FROM LAST STRESS PERIOD

     14 WELLS
 
 SOLVING FOR HEAD 

    39 ITERATIONS FOR TIME STEP   1 IN STRESS PERIOD   25

 OUTPUT CONTROL FOR STRESS PERIOD   25   TIME STEP   1
    SAVE HEAD FOR ALL LAYERS

 HEAD WILL BE SAVED ON UNIT   21 AT END OF TIME STEP   1, STRESS PERIOD   25
 
 SOLVING FOR HEAD 
    34 ITERATIONS FOR TIME STEP   2 IN STRESS PERIOD   25

 OUTPUT CONTROL FOR STRESS PERIOD   25   TIME STEP   2
    SAVE HEAD FOR ALL LAYERS

 HEAD WILL BE SAVED ON UNIT   21 AT END OF TIME STEP   2, STRESS PERIOD   25
 
 SOLVING FOR HEAD 
    32 ITERATIONS FOR TIME STEP   3 IN STRESS PERIOD   25

 OUTPUT CONTROL FOR STRESS PERIOD   25   TIME STEP   3
    SAVE HEAD FOR ALL LAYERS

 HEAD WILL BE SAVED ON UNIT   21 AT END OF TIME STEP   3, STRESS PERIOD   25
 
 SOLVING FOR HEAD 
    28 ITERATIONS FOR TIME STEP   4 IN STRESS PERIOD   25

 OUTPUT CONTROL FOR STRESS PERIOD   25   TIME STEP   4
    SAVE HEAD FOR ALL LAYERS

 HEAD WILL BE SAVED ON UNIT   21 AT END OF TIME STEP   4, STRESS PERIOD   25
 
 SOLVING FOR HEAD 
    25 ITERATIONS FOR TIME STEP   5 IN STRESS PERIOD   25

 MAXIMUM HEAD CHANGE FOR EACH ITERATION:

    HEAD CHANGE   HEAD CHANGE   HEAD CHANGE   HEAD CHANGE   HEAD CHANGE
  LAYER,ROW,COL LAYER,ROW,COL LAYER,ROW,COL LAYER,ROW,COL LAYER,ROW,COL
 ----------------------------------------------------------------------
     0.6065        0.9006        0.9553       -0.8431        -2.397    
  (  3,  1, 10) (  3,  2,  8) (  3,  3,  5) (  3,  2, 10) (  3,  1,  1)
     0.6933        0.3831        0.1314        0.6737E-01   -0.4629E-01
  (  3,  1, 10) (  3,  9,  3) (  2,  1,  8) (  2, 10,  1) (  2, 10, 10)
     0.7452E-01    0.1290E-01   -0.6069E-02   -0.3238E-02   -0.2117E-02
  (  2,  6,  1) (  2,  1,  2) (  3,  7,  3) (  3,  7,  2) (  3,  7,  3)
    -0.1807E-02   -0.1441E-02   -0.1129E-02   -0.6076E-03   -0.3913E-03
  (  2,  6,  1) (  3,  7,  3) (  3,  7,  3) (  3,  7,  3) (  3,  7,  3)
    -0.1499E-03   -0.2694E-03   -0.2117E-03   -0.1131E-03   -0.6625E-04
  (  3,  8,  1) (  3,  7,  3) (  3,  7,  3) (  3,  7,  3) (  3,  7,  3)


 OUTPUT CONTROL FOR STRESS PERIOD   25   TIME STEP   5
    SAVE HEAD FOR ALL LAYERS

 HEAD WILL BE SAVED ON UNIT   21 AT END OF TIME STEP   5, STRESS PERIOD   25
 
 SOLVING FOR HEAD 
    25 ITERATIONS FOR TIME STEP   6 IN STRESS PERIOD   25

 MAXIMUM HEAD CHANGE FOR EACH ITERATION:

    HEAD CHANGE   HEAD CHANGE   HEAD CHANGE   HEAD CHANGE   HEAD CHANGE
  LAYER,ROW,COL LAYER,ROW,COL LAYER,ROW,COL LAYER,ROW,COL LAYER,ROW,COL
 ----------------------------------------------------------------------
    -0.4081        0.4970        0.4161       -0.9537        -1.010    
  (  2,  3,  6) (  3,  2,  3) (  3,  2,  1) (  3,  1, 10) (  3,  1,  1)
     0.4727        0.2815        0.7878E-01    0.2683E-01   -0.2635E-01
  (  3,  1, 10) (  3,  2,  2) (  2,  1,  9) (  2, 10,  1) (  2, 10, 10)
     0.2699E-01   -0.1047E-01   -0.8458E-02   -0.4301E-02   -0.2577E-02
  (  2,  7,  1) (  3,  2,  6) (  3,  2,  4) (  3,  2,  6) (  3,  2,  6)
    -0.2269E-02   -0.1724E-02   -0.1468E-02   -0.7151E-03   -0.4544E-03
  (  2,  7,  1) (  3,  2,  5) (  3,  2,  6) (  3,  3,  6) (  3,  2,  7)
    -0.3580E-03   -0.3032E-03   -0.2446E-03   -0.1292E-03   -0.7403E-04
  (  2,  8,  1) (  3,  2,  7) (  3,  3,  6) (  3,  3,  6) (  3,  2,  6)


 OUTPUT CONTROL FOR STRESS PERIOD   25   TIME STEP   6
    PRINT BUDGET
    PRINT HEAD FOR ALL LAYERS
    SAVE HEAD FOR ALL LAYERS
    SAVE DRAWDOWN FOR ALL LAYERS
1
              HEAD IN LAYER   1 AT END OF TIME STEP   6 IN STRESS PERIOD   25
  ---------------------------------------------------------------------------

           1       2       3       4       5       6       7       8       9      10
 ...................................................................................
   1    20.14   19.79   19.12   18.69   18.49   18.49   18.69   19.11   19.78   20.13
   2    19.13   18.62   18.19   17.89   17.74   17.74   17.89   18.19   18.61   19.12
   3    17.69   17.19   16.82   16.57   16.44   16.44   16.56   16.81   17.18   17.68
   4    15.73   15.30   15.00   14.80   14.71   14.70   14.80   14.99   15.29   15.72
   5    12.96   12.87   12.77   12.68   12.64   12.64   12.68   12.76   12.86   12.95
   6    10.53   10.51   10.47   10.43   10.41   10.41   10.43   10.46   10.50   10.53
   7     8.21    8.19    8.16    8.13    8.11    8.10    8.12    8.16    8.19    8.21
   8     5.98    5.93    5.85    5.76    5.71    5.71    5.76    5.84    5.93    5.97
   9     3.93    3.79    3.53    3.24    3.12    3.12    3.24    3.53    3.79    3.93
  10     2.47    2.11    1.33    0.00    0.00    0.00    0.00    1.33    2.11    2.47
1
              HEAD IN LAYER   2 AT END OF TIME STEP   6 IN STRESS PERIOD   25
  ---------------------------------------------------------------------------

           1       2       3       4       5       6       7       8       9      10
 ...................................................................................
   1    -4.08   -4.07   -4.08   -4.09   -4.10   -4.12   -4.14   -4.16   -4.18   -4.21
   2    -4.16   -3.27   -3.58   -4.07   -4.56   -4.93   -4.90   -4.58   -4.22   -4.35
   3    -4.27   -3.79   -4.29   -5.11   -6.23   -7.19   -7.06   -6.10   -5.16   -4.51
   4    -4.41   -4.07   -4.47   -5.08   -5.83   -6.67   -6.53   -5.83   -5.20   -4.66
   5    -4.58   -4.28   -4.45   -4.73   -5.02   -5.24   -5.27   -5.14   -4.96   -4.81
   6    -4.75   -4.46   -4.51   -4.63   -4.75   -4.84   -4.87   -4.86   -4.85   -4.95
   7    -4.94   -4.74   -4.77   -4.83   -4.89   -4.93   -4.95   -4.95   -4.96   -5.10
   8    -5.13   -5.18   -5.25   -5.31   -5.36   -5.38   -5.38   -5.35   -5.31   -5.26
   9    -5.33   -5.74   -5.92   -6.07   -6.14   -6.16   -6.11   -5.98   -5.82   -5.41
  10    -5.51   -5.55   -5.58   -5.61   -5.63   -5.63   -5.63   -5.61   -5.58   -5.55
1
              HEAD IN LAYER   3 AT END OF TIME STEP   6 IN STRESS PERIOD   25
  ---------------------------------------------------------------------------

           1       2       3       4       5       6       7       8       9      10
 ...................................................................................
   1   -24.51  -24.68  -25.00  -25.42  -25.86  -26.21  -26.38  -26.38  -26.30  -26.24
   2   -24.53  -24.79  -25.31  -26.04  -26.92  -27.70  -27.78  -27.38  -26.97  -26.74
   3   -24.21  -24.60  -25.43  -26.84  -29.07  -32.69  -31.84  -29.14  -27.67  -27.01
   4   -23.01  -23.33  -23.98  -25.00  -26.44  -28.31  -28.05  -26.70  -25.82  -25.39
   5   -21.19  -21.37  -21.71  -22.18  -22.72  -23.17  -23.27  -23.08  -22.87  -22.73
   6   -19.29  -19.37  -19.53  -19.73  -19.95  -20.13  -20.22  -20.23  -20.20  -20.18
   7   -17.62  -17.66  -17.73  -17.82  -17.92  -18.00  -18.06  -18.10  -18.11  -18.11
   8   -16.33  -16.34  -16.38  -16.42  -16.47  -16.52  -16.55  -16.58  -16.60  -16.60
   9   -15.46  -15.47  -15.49  -15.51  -15.54  -15.56  -15.59  -15.60  -15.62  -15.62
  10   -15.02  -15.03  -15.04  -15.06  -15.07  -15.09  -15.11  -15.12  -15.13  -15.14

 HEAD WILL BE SAVED ON UNIT   21 AT END OF TIME STEP   6, STRESS PERIOD   25

 DRAWDOWN WILL BE SAVED ON UNIT   22 AT END OF TIME STEP   6, STRESS PERIOD   25
1
  VOLUMETRIC BUDGET FOR ENTIRE MODEL AT END OF TIME STEP  6 IN STRESS PERIOD  25
  ------------------------------------------------------------------------------

     CUMULATIVE VOLUMES      L**3       RATES FOR THIS TIME STEP      L**3/T
     ------------------                 ------------------------

           IN:                                      IN:
           ---                                      ---
             STORAGE =    38139740.0000               STORAGE =        3307.4495
       CONSTANT HEAD =      535937.1250         CONSTANT HEAD =         135.0150
               WELLS =   263045952.0000                 WELLS =       30000.0000
    INST. IB STORAGE =    54428128.0000      INST. IB STORAGE =        5042.9819
    DELAY IB STORAGE =   137050272.0000      DELAY IB STORAGE =       15180.3740

            TOTAL IN =   493200032.0000              TOTAL IN =       53665.8203

          OUT:                                     OUT:
          ----                                     ----
             STORAGE =           0.0000               STORAGE =           0.0000
       CONSTANT HEAD =   230184256.0000         CONSTANT HEAD =       23665.8730
               WELLS =   263015952.0000                 WELLS =       30000.0000
    INST. IB STORAGE =           0.0000      INST. IB STORAGE =           0.0000
    DELAY IB STORAGE =          39.8223      DELAY IB STORAGE =           0.0000

           TOTAL OUT =   493200256.0000             TOTAL OUT =       53665.8750

            IN - OUT =        -224.0000              IN - OUT =      -5.4688E-02

 PERCENT DISCREPANCY =           0.00     PERCENT DISCREPANCY =           0.00






          TIME SUMMARY AT END OF TIME STEP   6 IN STRESS PERIOD   25
                    SECONDS     MINUTES      HOURS       DAYS        YEARS
                    -----------------------------------------------------------
   TIME STEP LENGTH 9.18681E+06 1.53113E+05  2551.9      106.33     0.29111    
 STRESS PERIOD TIME 3.15619E+07 5.26032E+05  8767.2      365.30      1.0001    
         TOTAL TIME 7.57572E+08 1.26262E+07 2.10437E+05  8768.2      24.006    
1

                               VOLUMETRIC BUDGET FOR SYSTEMS OF DELAY INTERBEDS
                                          AT END OF TIME STEP  6 IN STRESS PERIOD 25

          |   C U M U L A T I V E   V O L U M E S   L**3           | R A T E S   F O R  T H I S  T I M E  S T E P   L**3/T  |
   SYSTEM |    CHANGE IN     BOUNDARY                    PERCENT   |    CHANGE IN     BOUNDARY                    PERCENT   |
   NUMBER |     STORAGE        FLOW           SUM      DISCREPANCY |     STORAGE        FLOW           SUM      DISCREPANCY |
  --------|--------------------------------------------------------|--------------------------------------------------------|
      1     97060.        -97060.       -0.15625E-01   -0.16098E-04     8.0788        -8.0788       -0.95367E-06   -0.11805E-04
      2    0.13695E+09   -0.13695E+09    -16.000       -0.11683E-04     15172.        -15172.       -0.97656E-03   -0.64365E-05
  --------|--------------------------------------------------------|--------------------------------------------------------|
 TOTALS:    0.13705E+09   -0.13705E+09    -16.000       -0.11675E-04     15180.        -15180.       -0.97656E-03   -0.64331E-05
1
                            STRESS PERIOD NO.   26, LENGTH =   365.3000    
                            -----------------------------------------------

                              NUMBER OF TIME STEPS =     6

                               MULTIPLIER FOR DELT =     1.300

                            INITIAL TIME STEP SIZE =   28.63744    

 REUSING NON-PARAMETER WELLS FROM LAST STRESS PERIOD

     14 WELLS
 
 SOLVING FOR HEAD 

    37 ITERATIONS FOR TIME STEP   1 IN STRESS PERIOD   26

 OUTPUT CONTROL FOR STRESS PERIOD   26   TIME STEP   1
    SAVE HEAD FOR ALL LAYERS

 HEAD WILL BE SAVED ON UNIT   21 AT END OF TIME STEP   1, STRESS PERIOD   26
 
 SOLVING FOR HEAD 
    35 ITERATIONS FOR TIME STEP   2 IN STRESS PERIOD   26

 OUTPUT CONTROL FOR STRESS PERIOD   26   TIME STEP   2
    SAVE HEAD FOR ALL LAYERS

 HEAD WILL BE SAVED ON UNIT   21 AT END OF TIME STEP   2, STRESS PERIOD   26
 
 SOLVING FOR HEAD 
    32 ITERATIONS FOR TIME STEP   3 IN STRESS PERIOD   26

 OUTPUT CONTROL FOR STRESS PERIOD   26   TIME STEP   3
    SAVE HEAD FOR ALL LAYERS

 HEAD WILL BE SAVED ON UNIT   21 AT END OF TIME STEP   3, STRESS PERIOD   26
 
 SOLVING FOR HEAD 
    28 ITERATIONS FOR TIME STEP   4 IN STRESS PERIOD   26

 OUTPUT CONTROL FOR STRESS PERIOD   26   TIME STEP   4
    SAVE HEAD FOR ALL LAYERS

 HEAD WILL BE SAVED ON UNIT   21 AT END OF TIME STEP   4, STRESS PERIOD   26
 
 SOLVING FOR HEAD 
    25 ITERATIONS FOR TIME STEP   5 IN STRESS PERIOD   26

 MAXIMUM HEAD CHANGE FOR EACH ITERATION:

    HEAD CHANGE   HEAD CHANGE   HEAD CHANGE   HEAD CHANGE   HEAD CHANGE
  LAYER,ROW,COL LAYER,ROW,COL LAYER,ROW,COL LAYER,ROW,COL LAYER,ROW,COL
 ----------------------------------------------------------------------
     0.4839        0.9785         1.008       -0.8060        -2.411    
  (  3,  1,  8) (  3,  1, 10) (  3,  1,  1) (  3,  2, 10) (  3,  1,  1)
     0.6802        0.3810        0.1295        0.6661E-01   -0.4584E-01
  (  3,  1, 10) (  3,  9,  3) (  2,  1,  8) (  2, 10,  1) (  2, 10, 10)
     0.7373E-01    0.1278E-01   -0.6362E-02   -0.3376E-02   -0.2221E-02
  (  2,  6,  1) (  2,  1,  2) (  3,  6,  3) (  3,  7,  3) (  3,  7,  4)
    -0.1693E-02   -0.1507E-02   -0.1185E-02   -0.6440E-03   -0.4163E-03
  (  2,  6,  1) (  3,  6,  2) (  3,  7,  3) (  3,  7,  4) (  3,  7,  4)
    -0.1685E-03   -0.2862E-03   -0.2264E-03   -0.1211E-03   -0.7125E-04
  (  3,  6,  1) (  3,  7,  3) (  3,  7,  4) (  3,  7,  4) (  3,  6,  2)


 OUTPUT CONTROL FOR STRESS PERIOD   26   TIME STEP   5
    SAVE HEAD FOR ALL LAYERS

 HEAD WILL BE SAVED ON UNIT   21 AT END OF TIME STEP   5, STRESS PERIOD   26
 
 SOLVING FOR HEAD 
    25 ITERATIONS FOR TIME STEP   6 IN STRESS PERIOD   26

 MAXIMUM HEAD CHANGE FOR EACH ITERATION:

    HEAD CHANGE   HEAD CHANGE   HEAD CHANGE   HEAD CHANGE   HEAD CHANGE
  LAYER,ROW,COL LAYER,ROW,COL LAYER,ROW,COL LAYER,ROW,COL LAYER,ROW,COL
 ----------------------------------------------------------------------
     0.3042        0.5739        0.4170       -0.9719       -0.9933    
  (  3,  1,  5) (  3,  1, 10) (  3,  2,  1) (  3, 10,  3) (  3,  1,  1)
     0.4668        0.2765        0.7751E-01    0.2634E-01   -0.2579E-01
  (  3,  1, 10) (  3,  2,  2) (  2,  1,  9) (  2, 10,  1) (  2, 10, 10)
     0.2631E-01   -0.1031E-01   -0.8305E-02   -0.4241E-02   -0.2528E-02
  (  2,  7,  1) (  3,  2,  7) (  3,  2,  4) (  3,  2,  7) (  3,  2,  6)
    -0.2205E-02   -0.1695E-02   -0.1444E-02   -0.6998E-03   -0.4470E-03
  (  2,  7,  1) (  3,  2,  6) (  3,  2,  6) (  3,  3,  6) (  3,  2,  7)
    -0.3544E-03   -0.2984E-03   -0.2384E-03   -0.1263E-03   -0.7202E-04
  (  2,  8,  1) (  3,  2,  7) (  3,  3,  6) (  3,  3,  6) (  3,  2,  6)


 OUTPUT CONTROL FOR STRESS PERIOD   26   TIME STEP   6
    PRINT BUDGET
    PRINT HEAD FOR ALL LAYERS
    SAVE HEAD FOR ALL LAYERS
    SAVE DRAWDOWN FOR ALL LAYERS
1
              HEAD IN LAYER   1 AT END OF TIME STEP   6 IN STRESS PERIOD   26
  ---------------------------------------------------------------------------

           1       2       3       4       5       6       7       8       9      10
 ...................................................................................
   1    20.06   19.70   19.03   18.61   18.40   18.40   18.61   19.03   19.70   20.05
   2    19.05   18.54   18.11   17.81   17.65   17.65   17.80   18.10   18.53   19.04
   3    17.61   17.11   16.74   16.49   16.36   16.36   16.48   16.73   17.10   17.60
   4    15.66   15.22   14.92   14.73   14.63   14.63   14.72   14.91   15.21   15.65
   5    12.89   12.80   12.70   12.61   12.57   12.57   12.61   12.69   12.79   12.88
   6    10.47   10.44   10.41   10.37   10.35   10.35   10.37   10.40   10.44   10.46
   7     8.16    8.14    8.11    8.07    8.05    8.05    8.07    8.10    8.14    8.16
   8     5.94    5.89    5.81    5.72    5.68    5.68    5.72    5.80    5.88    5.93
   9     3.90    3.76    3.51    3.22    3.10    3.10    3.22    3.50    3.76    3.90
  10     2.45    2.10    1.32    0.00    0.00    0.00    0.00    1.32    2.09    2.45
1
              HEAD IN LAYER   2 AT END OF TIME STEP   6 IN STRESS PERIOD   26
  ---------------------------------------------------------------------------

           1       2       3       4       5       6       7       8       9      10
 ...................................................................................
   1    -4.37   -4.37   -4.37   -4.38   -4.39   -4.41   -4.43   -4.45   -4.47   -4.50
   2    -4.45   -3.58   -3.89   -4.38   -4.87   -5.24   -5.21   -4.89   -4.53   -4.64
   3    -4.56   -4.10   -4.60   -5.41   -6.52   -7.32   -7.15   -6.39   -5.47   -4.80
   4    -4.70   -4.37   -4.77   -5.37   -6.13   -6.97   -6.83   -6.12   -5.49   -4.95
   5    -4.86   -4.57   -4.74   -5.02   -5.31   -5.53   -5.56   -5.43   -5.25   -5.09
   6    -5.03   -4.74   -4.79   -4.91   -5.03   -5.11   -5.15   -5.14   -5.12   -5.23
   7    -5.21   -5.01   -5.03   -5.09   -5.15   -5.19   -5.21   -5.22   -5.23   -5.38
   8    -5.40   -5.44   -5.50   -5.56   -5.61   -5.63   -5.63   -5.60   -5.56   -5.52
   9    -5.59   -5.99   -6.16   -6.31   -6.38   -6.40   -6.35   -6.22   -6.06   -5.67
  10    -5.77   -5.81   -5.84   -5.87   -5.89   -5.89   -5.89   -5.87   -5.84   -5.81
1
              HEAD IN LAYER   3 AT END OF TIME STEP   6 IN STRESS PERIOD   26
  ---------------------------------------------------------------------------

           1       2       3       4       5       6       7       8       9      10
 ...................................................................................
   1   -25.06  -25.23  -25.54  -25.96  -26.40  -26.76  -26.92  -26.92  -26.85  -26.79
   2   -25.07  -25.33  -25.85  -26.58  -27.46  -28.24  -28.32  -27.92  -27.51  -27.28
   3   -24.74  -25.13  -25.97  -27.37  -29.61  -33.22  -32.37  -29.67  -28.20  -27.55
   4   -23.53  -23.85  -24.50  -25.52  -26.96  -28.83  -28.57  -27.22  -26.34  -25.91
   5   -21.70  -21.88  -22.22  -22.69  -23.22  -23.68  -23.77  -23.59  -23.37  -23.24
   6   -19.78  -19.86  -20.02  -20.23  -20.44  -20.62  -20.71  -20.72  -20.69  -20.67
   7   -18.10  -18.13  -18.21  -18.30  -18.40  -18.48  -18.54  -18.57  -18.59  -18.59
   8   -16.79  -16.81  -16.84  -16.89  -16.94  -16.98  -17.02  -17.05  -17.06  -17.07
   9   -15.91  -15.92  -15.94  -15.97  -15.99  -16.02  -16.04  -16.06  -16.07  -16.08
  10   -15.47  -15.48  -15.49  -15.51  -15.53  -15.55  -15.56  -15.58  -15.58  -15.59

 HEAD WILL BE SAVED ON UNIT   21 AT END OF TIME STEP   6, STRESS PERIOD   26

 DRAWDOWN WILL BE SAVED ON UNIT   22 AT END OF TIME STEP   6, STRESS PERIOD   26
1
  VOLUMETRIC BUDGET FOR ENTIRE MODEL AT END OF TIME STEP  6 IN STRESS PERIOD  26
  ------------------------------------------------------------------------------

     CUMULATIVE VOLUMES      L**3       RATES FOR THIS TIME STEP      L**3/T
     ------------------                 ------------------------

           IN:                                      IN:
           ---                                      ---
             STORAGE =    39334872.0000               STORAGE =        3248.8928
       CONSTANT HEAD =      586611.2500         CONSTANT HEAD =         141.1958
               WELLS =   274004928.0000                 WELLS =       30000.0000
    INST. IB STORAGE =    56264928.0000      INST. IB STORAGE =        5011.3276
    DELAY IB STORAGE =   142572976.0000      DELAY IB STORAGE =       15082.6660

            TOTAL IN =   512764320.0000              TOTAL IN =       53484.0820

          OUT:                                     OUT:
          ----                                     ----
             STORAGE =           0.0000               STORAGE =           0.0000
       CONSTANT HEAD =   238789536.0000         CONSTANT HEAD =       23484.1055
               WELLS =   273974944.0000                 WELLS =       30000.0000
    INST. IB STORAGE =           0.0000      INST. IB STORAGE =           0.0000
    DELAY IB STORAGE =          39.8223      DELAY IB STORAGE =           0.0000

           TOTAL OUT =   512764512.0000             TOTAL OUT =       53484.1055

            IN - OUT =        -192.0000              IN - OUT =      -2.3438E-02

 PERCENT DISCREPANCY =           0.00     PERCENT DISCREPANCY =           0.00






          TIME SUMMARY AT END OF TIME STEP   6 IN STRESS PERIOD   26
                    SECONDS     MINUTES      HOURS       DAYS        YEARS
                    -----------------------------------------------------------
   TIME STEP LENGTH 9.18681E+06 1.53113E+05  2551.9      106.33     0.29111    
 STRESS PERIOD TIME 3.15619E+07 5.26032E+05  8767.2      365.30      1.0001    
         TOTAL TIME 7.89134E+08 1.31522E+07 2.19204E+05  9133.5      25.006    
1

                               VOLUMETRIC BUDGET FOR SYSTEMS OF DELAY INTERBEDS
                                          AT END OF TIME STEP  6 IN STRESS PERIOD 26

          |   C U M U L A T I V E   V O L U M E S   L**3           | R A T E S   F O R  T H I S  T I M E  S T E P   L**3/T  |
   SYSTEM |    CHANGE IN     BOUNDARY                    PERCENT   |    CHANGE IN     BOUNDARY                    PERCENT   |
   NUMBER |     STORAGE        FLOW           SUM      DISCREPANCY |     STORAGE        FLOW           SUM      DISCREPANCY |
  --------|--------------------------------------------------------|--------------------------------------------------------|
      1    0.10021E+06   -0.10021E+06   -0.15625E-01   -0.15592E-04     7.9062        -7.9062        0.14305E-05    0.18094E-04
      2    0.14247E+09   -0.14247E+09    -16.000       -0.11230E-04     15075.        -15075.         0.0000         0.0000    
  --------|--------------------------------------------------------|--------------------------------------------------------|
 TOTALS:    0.14257E+09   -0.14257E+09    -16.000       -0.11222E-04     15083.        -15083.         0.0000         0.0000    
1
                            STRESS PERIOD NO.   27, LENGTH =   365.3000    
                            -----------------------------------------------

                              NUMBER OF TIME STEPS =     6

                               MULTIPLIER FOR DELT =     1.300

                            INITIAL TIME STEP SIZE =   28.63744    

 REUSING NON-PARAMETER WELLS FROM LAST STRESS PERIOD

     14 WELLS
 
 SOLVING FOR HEAD 

    38 ITERATIONS FOR TIME STEP   1 IN STRESS PERIOD   27

 OUTPUT CONTROL FOR STRESS PERIOD   27   TIME STEP   1
    SAVE HEAD FOR ALL LAYERS

 HEAD WILL BE SAVED ON UNIT   21 AT END OF TIME STEP   1, STRESS PERIOD   27
 
 SOLVING FOR HEAD 
    34 ITERATIONS FOR TIME STEP   2 IN STRESS PERIOD   27

 OUTPUT CONTROL FOR STRESS PERIOD   27   TIME STEP   2
    SAVE HEAD FOR ALL LAYERS

 HEAD WILL BE SAVED ON UNIT   21 AT END OF TIME STEP   2, STRESS PERIOD   27
 
 SOLVING FOR HEAD 
    34 ITERATIONS FOR TIME STEP   3 IN STRESS PERIOD   27

 OUTPUT CONTROL FOR STRESS PERIOD   27   TIME STEP   3
    SAVE HEAD FOR ALL LAYERS

 HEAD WILL BE SAVED ON UNIT   21 AT END OF TIME STEP   3, STRESS PERIOD   27
 
 SOLVING FOR HEAD 
    28 ITERATIONS FOR TIME STEP   4 IN STRESS PERIOD   27

 OUTPUT CONTROL FOR STRESS PERIOD   27   TIME STEP   4
    SAVE HEAD FOR ALL LAYERS

 HEAD WILL BE SAVED ON UNIT   21 AT END OF TIME STEP   4, STRESS PERIOD   27
 
 SOLVING FOR HEAD 
    25 ITERATIONS FOR TIME STEP   5 IN STRESS PERIOD   27

 MAXIMUM HEAD CHANGE FOR EACH ITERATION:

    HEAD CHANGE   HEAD CHANGE   HEAD CHANGE   HEAD CHANGE   HEAD CHANGE
  LAYER,ROW,COL LAYER,ROW,COL LAYER,ROW,COL LAYER,ROW,COL LAYER,ROW,COL
 ----------------------------------------------------------------------
     0.4626        0.9036        0.9828       -0.8533        -2.386    
  (  3,  1,  6) (  3,  1,  9) (  3,  2,  1) (  3, 10, 10) (  3,  1,  1)
     0.6894        0.3945        0.1329        0.6858E-01   -0.4684E-01
  (  3,  1, 10) (  3,  9,  3) (  2,  1,  7) (  2, 10,  1) (  2, 10, 10)
     0.7600E-01    0.1355E-01   -0.6389E-02   -0.3443E-02   -0.2269E-02
  (  2,  6,  1) (  2,  1,  2) (  3,  7,  2) (  3,  7,  2) (  3,  7,  2)
    -0.1829E-02   -0.1540E-02   -0.1199E-02   -0.6541E-03   -0.4232E-03
  (  2,  6,  1) (  3,  7,  2) (  3,  7,  2) (  3,  7,  2) (  3,  7,  2)
    -0.1665E-03   -0.2907E-03   -0.2280E-03   -0.1234E-03   -0.7741E-04
  (  3,  7,  2) (  3,  7,  2) (  3,  7,  2) (  3,  7,  2) (  3,  7,  2)


 OUTPUT CONTROL FOR STRESS PERIOD   27   TIME STEP   5
    SAVE HEAD FOR ALL LAYERS

 HEAD WILL BE SAVED ON UNIT   21 AT END OF TIME STEP   5, STRESS PERIOD   27
 
 SOLVING FOR HEAD 
    25 ITERATIONS FOR TIME STEP   6 IN STRESS PERIOD   27

 MAXIMUM HEAD CHANGE FOR EACH ITERATION:

    HEAD CHANGE   HEAD CHANGE   HEAD CHANGE   HEAD CHANGE   HEAD CHANGE
  LAYER,ROW,COL LAYER,ROW,COL LAYER,ROW,COL LAYER,ROW,COL LAYER,ROW,COL
 ----------------------------------------------------------------------
    -0.6825        0.6378        0.4226       -0.9440       -0.9583    
  (  2,  3,  6) (  2,  3,  6) (  3,  2,  1) (  3, 10,  2) (  3,  1,  1)
     0.4514        0.2653        0.7417E-01    0.2501E-01   -0.2484E-01
  (  3,  1, 10) (  3,  2,  2) (  2,  1,  9) (  2, 10,  1) (  2, 10, 10)
     0.2495E-01   -0.1019E-01   -0.8228E-02   -0.4174E-02   -0.2517E-02
  (  2,  7,  1) (  3,  2,  6) (  3,  2,  4) (  3,  2,  6) (  3,  2,  6)
    -0.2178E-02   -0.1679E-02   -0.1425E-02   -0.6946E-03   -0.4399E-03
  (  2,  7,  1) (  3,  2,  6) (  3,  2,  6) (  3,  2,  6) (  3,  2,  6)
    -0.3548E-03   -0.2949E-03   -0.2366E-03   -0.1240E-03   -0.7197E-04
  (  2,  8,  1) (  3,  2,  6) (  3,  2,  5) (  3,  3,  6) (  3,  2,  7)


 OUTPUT CONTROL FOR STRESS PERIOD   27   TIME STEP   6
    PRINT BUDGET
    PRINT HEAD FOR ALL LAYERS
    SAVE HEAD FOR ALL LAYERS
    SAVE DRAWDOWN FOR ALL LAYERS
1
              HEAD IN LAYER   1 AT END OF TIME STEP   6 IN STRESS PERIOD   27
  ---------------------------------------------------------------------------

           1       2       3       4       5       6       7       8       9      10
 ...................................................................................
   1    19.98   19.62   18.95   18.53   18.32   18.32   18.52   18.95   19.62   19.97
   2    18.97   18.46   18.03   17.73   17.57   17.57   17.72   18.02   18.45   18.96
   3    17.53   17.03   16.66   16.41   16.28   16.28   16.40   16.65   17.02   17.52
   4    15.58   15.15   14.84   14.65   14.56   14.55   14.65   14.84   15.14   15.58
   5    12.82   12.73   12.63   12.54   12.50   12.50   12.54   12.62   12.72   12.81
   6    10.41   10.38   10.34   10.31   10.29   10.29   10.31   10.34   10.38   10.40
   7     8.11    8.09    8.06    8.02    8.00    8.00    8.02    8.05    8.09    8.11
   8     5.90    5.85    5.77    5.68    5.64    5.64    5.68    5.76    5.84    5.89
   9     3.88    3.73    3.48    3.19    3.07    3.07    3.19    3.48    3.73    3.87
  10     2.43    2.08    1.31    0.00    0.00    0.00    0.00    1.31    2.08    2.43
1
              HEAD IN LAYER   2 AT END OF TIME STEP   6 IN STRESS PERIOD   27
  ---------------------------------------------------------------------------

           1       2       3       4       5       6       7       8       9      10
 ...................................................................................
   1    -4.66   -4.66   -4.66   -4.67   -4.69   -4.70   -4.72   -4.74   -4.76   -4.79
   2    -4.73   -3.88   -4.19   -4.69   -5.18   -5.54   -5.51   -5.19   -4.83   -4.93
   3    -4.84   -4.40   -4.90   -5.71   -6.82   -7.48   -7.27   -6.68   -5.77   -5.08
   4    -4.98   -4.66   -5.07   -5.67   -6.41   -7.03   -7.01   -6.41   -5.79   -5.23
   5    -5.13   -4.86   -5.03   -5.30   -5.59   -5.82   -5.84   -5.71   -5.54   -5.37
   6    -5.30   -5.01   -5.06   -5.18   -5.30   -5.39   -5.42   -5.41   -5.40   -5.50
   7    -5.48   -5.27   -5.30   -5.36   -5.41   -5.46   -5.48   -5.48   -5.49   -5.64
   8    -5.66   -5.69   -5.75   -5.81   -5.86   -5.89   -5.88   -5.85   -5.82   -5.79
   9    -5.85   -6.23   -6.41   -6.55   -6.62   -6.64   -6.59   -6.47   -6.31   -5.94
  10    -6.02   -6.06   -6.10   -6.13   -6.14   -6.15   -6.14   -6.12   -6.10   -6.07
1
              HEAD IN LAYER   3 AT END OF TIME STEP   6 IN STRESS PERIOD   27
  ---------------------------------------------------------------------------

           1       2       3       4       5       6       7       8       9      10
 ...................................................................................
   1   -25.59  -25.76  -26.08  -26.50  -26.94  -27.30  -27.46  -27.46  -27.39  -27.33
   2   -25.61  -25.87  -26.38  -27.12  -27.99  -28.77  -28.85  -28.45  -28.04  -27.81
   3   -25.27  -25.66  -26.49  -27.89  -30.13  -33.75  -32.90  -30.20  -28.73  -28.07
   4   -24.04  -24.36  -25.01  -26.04  -27.47  -29.35  -29.08  -27.74  -26.86  -26.43
   5   -22.20  -22.38  -22.72  -23.19  -23.73  -24.18  -24.28  -24.09  -23.88  -23.74
   6   -20.27  -20.35  -20.51  -20.71  -20.93  -21.11  -21.20  -21.21  -21.18  -21.16
   7   -18.57  -18.61  -18.68  -18.77  -18.87  -18.96  -19.02  -19.05  -19.06  -19.07
   8   -17.26  -17.27  -17.31  -17.35  -17.40  -17.45  -17.48  -17.51  -17.53  -17.53
   9   -16.37  -16.38  -16.40  -16.42  -16.45  -16.48  -16.50  -16.52  -16.53  -16.53
  10   -15.92  -15.93  -15.94  -15.96  -15.98  -16.00  -16.02  -16.03  -16.04  -16.04

 HEAD WILL BE SAVED ON UNIT   21 AT END OF TIME STEP   6, STRESS PERIOD   27

 DRAWDOWN WILL BE SAVED ON UNIT   22 AT END OF TIME STEP   6, STRESS PERIOD   27
1
  VOLUMETRIC BUDGET FOR ENTIRE MODEL AT END OF TIME STEP  6 IN STRESS PERIOD  27
  ------------------------------------------------------------------------------

     CUMULATIVE VOLUMES      L**3       RATES FOR THIS TIME STEP      L**3/T
     ------------------                 ------------------------

           IN:                                      IN:
           ---                                      ---
             STORAGE =    40508740.0000               STORAGE =        3190.7190
       CONSTANT HEAD =      639537.4375         CONSTANT HEAD =         147.3513
               WELLS =   284963904.0000                 WELLS =       30000.0000
    INST. IB STORAGE =    58092488.0000      INST. IB STORAGE =        4991.3838
    DELAY IB STORAGE =   148058112.0000      DELAY IB STORAGE =       14975.7705

            TOTAL IN =   532262784.0000              TOTAL IN =       53305.2266

          OUT:                                     OUT:
          ----                                     ----
             STORAGE =           0.0000               STORAGE =           0.0000
       CONSTANT HEAD =   247329040.0000         CONSTANT HEAD =       23305.2500
               WELLS =   284933920.0000                 WELLS =       30000.0000
    INST. IB STORAGE =           0.0000      INST. IB STORAGE =           0.0000
    DELAY IB STORAGE =          39.8223      DELAY IB STORAGE =           0.0000

           TOTAL OUT =   532263008.0000             TOTAL OUT =       53305.2500

            IN - OUT =        -224.0000              IN - OUT =      -2.3438E-02

 PERCENT DISCREPANCY =           0.00     PERCENT DISCREPANCY =           0.00






          TIME SUMMARY AT END OF TIME STEP   6 IN STRESS PERIOD   27
                    SECONDS     MINUTES      HOURS       DAYS        YEARS
                    -----------------------------------------------------------
   TIME STEP LENGTH 9.18681E+06 1.53113E+05  2551.9      106.33     0.29111    
 STRESS PERIOD TIME 3.15619E+07 5.26032E+05  8767.2      365.30      1.0001    
         TOTAL TIME 8.20696E+08 1.36783E+07 2.27971E+05  9498.8      26.006    
1

                               VOLUMETRIC BUDGET FOR SYSTEMS OF DELAY INTERBEDS
                                          AT END OF TIME STEP  6 IN STRESS PERIOD 27

          |   C U M U L A T I V E   V O L U M E S   L**3           | R A T E S   F O R  T H I S  T I M E  S T E P   L**3/T  |
   SYSTEM |    CHANGE IN     BOUNDARY                    PERCENT   |    CHANGE IN     BOUNDARY                    PERCENT   |
   NUMBER |     STORAGE        FLOW           SUM      DISCREPANCY |     STORAGE        FLOW           SUM      DISCREPANCY |
  --------|--------------------------------------------------------|--------------------------------------------------------|
      1    0.10330E+06   -0.10330E+06   -0.15625E-01   -0.15125E-04     7.6995        -7.6995        0.23842E-05    0.30966E-04
      2    0.14795E+09   -0.14795E+09    -16.000       -0.10814E-04     14968.        -14968.         0.0000         0.0000    
  --------|--------------------------------------------------------|--------------------------------------------------------|
 TOTALS:    0.14806E+09   -0.14806E+09    -16.000       -0.10807E-04     14976.        -14976.         0.0000         0.0000    
1
                            STRESS PERIOD NO.   28, LENGTH =   365.3000    
                            -----------------------------------------------

                              NUMBER OF TIME STEPS =     6

                               MULTIPLIER FOR DELT =     1.300

                            INITIAL TIME STEP SIZE =   28.63744    

 REUSING NON-PARAMETER WELLS FROM LAST STRESS PERIOD

     14 WELLS
 
 SOLVING FOR HEAD 

    38 ITERATIONS FOR TIME STEP   1 IN STRESS PERIOD   28

 OUTPUT CONTROL FOR STRESS PERIOD   28   TIME STEP   1
    SAVE HEAD FOR ALL LAYERS

 HEAD WILL BE SAVED ON UNIT   21 AT END OF TIME STEP   1, STRESS PERIOD   28
 
 SOLVING FOR HEAD 
    35 ITERATIONS FOR TIME STEP   2 IN STRESS PERIOD   28

 OUTPUT CONTROL FOR STRESS PERIOD   28   TIME STEP   2
    SAVE HEAD FOR ALL LAYERS

 HEAD WILL BE SAVED ON UNIT   21 AT END OF TIME STEP   2, STRESS PERIOD   28
 
 SOLVING FOR HEAD 
    33 ITERATIONS FOR TIME STEP   3 IN STRESS PERIOD   28

 OUTPUT CONTROL FOR STRESS PERIOD   28   TIME STEP   3
    SAVE HEAD FOR ALL LAYERS

 HEAD WILL BE SAVED ON UNIT   21 AT END OF TIME STEP   3, STRESS PERIOD   28
 
 SOLVING FOR HEAD 
    28 ITERATIONS FOR TIME STEP   4 IN STRESS PERIOD   28

 OUTPUT CONTROL FOR STRESS PERIOD   28   TIME STEP   4
    SAVE HEAD FOR ALL LAYERS

 HEAD WILL BE SAVED ON UNIT   21 AT END OF TIME STEP   4, STRESS PERIOD   28
 
 SOLVING FOR HEAD 
    25 ITERATIONS FOR TIME STEP   5 IN STRESS PERIOD   28

 MAXIMUM HEAD CHANGE FOR EACH ITERATION:

    HEAD CHANGE   HEAD CHANGE   HEAD CHANGE   HEAD CHANGE   HEAD CHANGE
  LAYER,ROW,COL LAYER,ROW,COL LAYER,ROW,COL LAYER,ROW,COL LAYER,ROW,COL
 ----------------------------------------------------------------------
     0.5928        0.9357        0.8855       -0.8415        -2.307    
  (  3,  1,  1) (  3,  1,  9) (  3,  4,  4) (  3, 10, 10) (  3,  1,  1)
     0.6641        0.3835        0.1662        0.4910E-01   -0.3760E-01
  (  3,  1, 10) (  3,  9,  3) (  2,  9,  5) (  2,  9,  6) (  2, 10, 10)
     0.7364E-01    0.1278E-01   -0.6362E-02   -0.3381E-02   -0.2259E-02
  (  2,  7,  1) (  2,  1,  2) (  3,  7,  3) (  3,  7,  3) (  3,  7,  3)
    -0.1835E-02   -0.1524E-02   -0.1188E-02   -0.6553E-03   -0.4180E-03
  (  2,  6,  1) (  3,  7,  3) (  3,  7,  3) (  3,  7,  3) (  3,  7,  3)
    -0.1700E-03   -0.2897E-03   -0.2299E-03   -0.1222E-03   -0.7422E-04
  (  3,  7,  4) (  3,  7,  3) (  3,  7,  3) (  3,  7,  3) (  3,  7,  3)


 OUTPUT CONTROL FOR STRESS PERIOD   28   TIME STEP   5
    SAVE HEAD FOR ALL LAYERS

 HEAD WILL BE SAVED ON UNIT   21 AT END OF TIME STEP   5, STRESS PERIOD   28
 
 SOLVING FOR HEAD 
    25 ITERATIONS FOR TIME STEP   6 IN STRESS PERIOD   28

 MAXIMUM HEAD CHANGE FOR EACH ITERATION:

    HEAD CHANGE   HEAD CHANGE   HEAD CHANGE   HEAD CHANGE   HEAD CHANGE
  LAYER,ROW,COL LAYER,ROW,COL LAYER,ROW,COL LAYER,ROW,COL LAYER,ROW,COL
 ----------------------------------------------------------------------
     0.3431        0.5664        0.3949       -0.9205       -0.9474    
  (  3,  1,  1) (  3,  1, 10) (  3,  3,  3) (  3, 10,  2) (  3,  1,  1)
     0.4524        0.2673        0.7500E-01    0.2547E-01   -0.2504E-01
  (  3,  1, 10) (  3,  2,  2) (  2,  1,  9) (  2, 10,  1) (  2, 10, 10)
     0.2565E-01   -0.1011E-01   -0.8149E-02   -0.4159E-02   -0.2478E-02
  (  2,  7,  1) (  3,  2,  6) (  3,  2,  4) (  3,  2,  6) (  3,  2,  6)
    -0.2170E-02   -0.1663E-02   -0.1417E-02   -0.6830E-03   -0.4390E-03
  (  2,  7,  1) (  3,  2,  6) (  3,  2,  6) (  3,  3,  6) (  3,  2,  6)
    -0.3415E-03   -0.2918E-03   -0.2331E-03   -0.1233E-03   -0.6962E-04
  (  2,  8,  1) (  3,  2,  7) (  3,  3,  5) (  3,  3,  6) (  3,  2,  7)


 OUTPUT CONTROL FOR STRESS PERIOD   28   TIME STEP   6
    PRINT BUDGET
    PRINT HEAD FOR ALL LAYERS
    SAVE HEAD FOR ALL LAYERS
    SAVE DRAWDOWN FOR ALL LAYERS
1
              HEAD IN LAYER   1 AT END OF TIME STEP   6 IN STRESS PERIOD   28
  ---------------------------------------------------------------------------

           1       2       3       4       5       6       7       8       9      10
 ...................................................................................
   1    19.90   19.54   18.87   18.45   18.24   18.24   18.44   18.86   19.54   19.89
   2    18.89   18.38   17.95   17.65   17.49   17.49   17.64   17.94   18.37   18.88
   3    17.45   16.95   16.58   16.33   16.21   16.20   16.33   16.57   16.94   17.44
   4    15.51   15.07   14.77   14.58   14.48   14.48   14.57   14.76   15.06   15.50
   5    12.75   12.66   12.56   12.48   12.43   12.43   12.47   12.55   12.65   12.74
   6    10.35   10.32   10.28   10.25   10.23   10.23   10.25   10.28   10.32   10.34
   7     8.06    8.04    8.01    7.97    7.95    7.95    7.97    8.00    8.03    8.05
   8     5.86    5.81    5.73    5.65    5.60    5.60    5.64    5.73    5.80    5.85
   9     3.85    3.71    3.45    3.17    3.05    3.05    3.17    3.45    3.71    3.85
  10     2.41    2.06    1.30    0.00    0.00    0.00    0.00    1.30    2.06    2.41
1
              HEAD IN LAYER   2 AT END OF TIME STEP   6 IN STRESS PERIOD   28
  ---------------------------------------------------------------------------

           1       2       3       4       5       6       7       8       9      10
 ...................................................................................
   1    -4.95   -4.94   -4.95   -4.96   -4.97   -4.99   -5.01   -5.03   -5.05   -5.08
   2    -5.02   -4.19   -4.50   -4.99   -5.48   -5.84   -5.81   -5.50   -5.13   -5.21
   3    -5.13   -4.69   -5.20   -6.01   -7.01   -7.65   -7.41   -6.97   -6.06   -5.36
   4    -5.26   -4.95   -5.36   -5.96   -6.69   -7.09   -7.05   -6.69   -6.08   -5.51
   5    -5.41   -5.14   -5.31   -5.58   -5.87   -6.09   -6.12   -6.00   -5.82   -5.64
   6    -5.57   -5.29   -5.34   -5.46   -5.57   -5.66   -5.70   -5.69   -5.67   -5.77
   7    -5.75   -5.54   -5.56   -5.62   -5.68   -5.72   -5.74   -5.74   -5.76   -5.91
   8    -5.93   -5.95   -6.00   -6.07   -6.11   -6.14   -6.13   -6.10   -6.07   -6.05
   9    -6.11   -6.48   -6.65   -6.79   -6.86   -6.88   -6.83   -6.71   -6.55   -6.20
  10    -6.28   -6.32   -6.35   -6.38   -6.40   -6.40   -6.40   -6.38   -6.36   -6.33
1
              HEAD IN LAYER   3 AT END OF TIME STEP   6 IN STRESS PERIOD   28
  ---------------------------------------------------------------------------

           1       2       3       4       5       6       7       8       9      10
 ...................................................................................
   1   -26.12  -26.29  -26.61  -27.03  -27.47  -27.83  -27.99  -27.99  -27.92  -27.86
   2   -26.13  -26.39  -26.91  -27.64  -28.52  -29.30  -29.38  -28.98  -28.57  -28.34
   3   -25.79  -26.18  -27.01  -28.41  -30.65  -34.27  -33.42  -30.72  -29.25  -28.59
   4   -24.55  -24.87  -25.52  -26.55  -27.98  -29.85  -29.59  -28.25  -27.37  -26.94
   5   -22.70  -22.88  -23.22  -23.69  -24.23  -24.68  -24.77  -24.59  -24.38  -24.24
   6   -20.75  -20.84  -20.99  -21.20  -21.42  -21.59  -21.68  -21.69  -21.67  -21.65
   7   -19.05  -19.08  -19.16  -19.25  -19.35  -19.43  -19.49  -19.52  -19.54  -19.54
   8   -17.72  -17.74  -17.77  -17.82  -17.87  -17.91  -17.95  -17.97  -17.99  -18.00
   9   -16.83  -16.84  -16.86  -16.88  -16.91  -16.93  -16.96  -16.98  -16.99  -16.99
  10   -16.38  -16.38  -16.40  -16.41  -16.43  -16.45  -16.47  -16.48  -16.49  -16.50

 HEAD WILL BE SAVED ON UNIT   21 AT END OF TIME STEP   6, STRESS PERIOD   28

 DRAWDOWN WILL BE SAVED ON UNIT   22 AT END OF TIME STEP   6, STRESS PERIOD   28
1
  VOLUMETRIC BUDGET FOR ENTIRE MODEL AT END OF TIME STEP  6 IN STRESS PERIOD  28
  ------------------------------------------------------------------------------

     CUMULATIVE VOLUMES      L**3       RATES FOR THIS TIME STEP      L**3/T
     ------------------                 ------------------------

           IN:                                      IN:
           ---                                      ---
             STORAGE =    41661532.0000               STORAGE =        3133.4397
       CONSTANT HEAD =      694706.4375         CONSTANT HEAD =         153.4790
               WELLS =   295922880.0000                 WELLS =       30000.0000
    INST. IB STORAGE =    59910940.0000      INST. IB STORAGE =        4964.9297
    DELAY IB STORAGE =   153506496.0000      DELAY IB STORAGE =       14877.3584

            TOTAL IN =   551696576.0000              TOTAL IN =       53129.2070

          OUT:                                     OUT:
          ----                                     ----
             STORAGE =           0.0000               STORAGE =           0.0000
       CONSTANT HEAD =   255803856.0000         CONSTANT HEAD =       23129.2422
               WELLS =   295892896.0000                 WELLS =       30000.0000
    INST. IB STORAGE =           0.0000      INST. IB STORAGE =           0.0000
    DELAY IB STORAGE =          39.8223      DELAY IB STORAGE =           0.0000

           TOTAL OUT =   551696768.0000             TOTAL OUT =       53129.2422

            IN - OUT =        -192.0000              IN - OUT =      -3.5156E-02

 PERCENT DISCREPANCY =           0.00     PERCENT DISCREPANCY =           0.00






          TIME SUMMARY AT END OF TIME STEP   6 IN STRESS PERIOD   28
                    SECONDS     MINUTES      HOURS       DAYS        YEARS
                    -----------------------------------------------------------
   TIME STEP LENGTH 9.18681E+06 1.53113E+05  2551.9      106.33     0.29111    
 STRESS PERIOD TIME 3.15619E+07 5.26032E+05  8767.2      365.30      1.0001    
         TOTAL TIME 8.52258E+08 1.42043E+07 2.36738E+05  9864.1      27.006    
1

                               VOLUMETRIC BUDGET FOR SYSTEMS OF DELAY INTERBEDS
                                          AT END OF TIME STEP  6 IN STRESS PERIOD 28

          |   C U M U L A T I V E   V O L U M E S   L**3           | R A T E S   F O R  T H I S  T I M E  S T E P   L**3/T  |
   SYSTEM |    CHANGE IN     BOUNDARY                    PERCENT   |    CHANGE IN     BOUNDARY                    PERCENT   |
   NUMBER |     STORAGE        FLOW           SUM      DISCREPANCY |     STORAGE        FLOW           SUM      DISCREPANCY |
  --------|--------------------------------------------------------|--------------------------------------------------------|
      1    0.10634E+06   -0.10634E+06   -0.15625E-01   -0.14693E-04     7.6076        -7.6076       -0.38147E-05   -0.50143E-04
      2    0.15340E+09   -0.15340E+09    -16.000       -0.10430E-04     14870.        -14870.        0.19531E-02    0.13135E-04
  --------|--------------------------------------------------------|--------------------------------------------------------|
 TOTALS:    0.15351E+09   -0.15351E+09    -16.000       -0.10423E-04     14877.        -14877.        0.19531E-02    0.13128E-04
1
                            STRESS PERIOD NO.   29, LENGTH =   365.3000    
                            -----------------------------------------------

                              NUMBER OF TIME STEPS =     6

                               MULTIPLIER FOR DELT =     1.300

                            INITIAL TIME STEP SIZE =   28.63744    

 REUSING NON-PARAMETER WELLS FROM LAST STRESS PERIOD

     14 WELLS
 
 SOLVING FOR HEAD 

    39 ITERATIONS FOR TIME STEP   1 IN STRESS PERIOD   29

 OUTPUT CONTROL FOR STRESS PERIOD   29   TIME STEP   1
    SAVE HEAD FOR ALL LAYERS

 HEAD WILL BE SAVED ON UNIT   21 AT END OF TIME STEP   1, STRESS PERIOD   29
 
 SOLVING FOR HEAD 
    35 ITERATIONS FOR TIME STEP   2 IN STRESS PERIOD   29

 OUTPUT CONTROL FOR STRESS PERIOD   29   TIME STEP   2
    SAVE HEAD FOR ALL LAYERS

 HEAD WILL BE SAVED ON UNIT   21 AT END OF TIME STEP   2, STRESS PERIOD   29
 
 SOLVING FOR HEAD 
    34 ITERATIONS FOR TIME STEP   3 IN STRESS PERIOD   29

 OUTPUT CONTROL FOR STRESS PERIOD   29   TIME STEP   3
    SAVE HEAD FOR ALL LAYERS

 HEAD WILL BE SAVED ON UNIT   21 AT END OF TIME STEP   3, STRESS PERIOD   29
 
 SOLVING FOR HEAD 
    28 ITERATIONS FOR TIME STEP   4 IN STRESS PERIOD   29

 OUTPUT CONTROL FOR STRESS PERIOD   29   TIME STEP   4
    SAVE HEAD FOR ALL LAYERS

 HEAD WILL BE SAVED ON UNIT   21 AT END OF TIME STEP   4, STRESS PERIOD   29
 
 SOLVING FOR HEAD 
    25 ITERATIONS FOR TIME STEP   5 IN STRESS PERIOD   29

 MAXIMUM HEAD CHANGE FOR EACH ITERATION:

    HEAD CHANGE   HEAD CHANGE   HEAD CHANGE   HEAD CHANGE   HEAD CHANGE
  LAYER,ROW,COL LAYER,ROW,COL LAYER,ROW,COL LAYER,ROW,COL LAYER,ROW,COL
 ----------------------------------------------------------------------
    -0.7064        0.8707        0.9008       -0.8604        -2.313    
  (  2,  3,  6) (  3,  2,  9) (  3,  3,  3) (  3, 10, 10) (  3,  1,  1)
     0.6696        0.3890        0.1312        0.7027E-01   -0.3105E-01
  (  3,  1, 10) (  3,  9,  3) (  2,  1,  7) (  2, 10,  4) (  2, 10,  9)
     0.7501E-01    0.1408E-01   -0.6453E-02   -0.3460E-02   -0.2269E-02
  (  2,  6,  1) (  2,  1,  2) (  3,  7,  3) (  3,  7,  1) (  3,  7,  2)
    -0.1686E-02   -0.1536E-02   -0.1204E-02   -0.6513E-03   -0.4225E-03
  (  2,  5,  1) (  3,  7,  2) (  3,  7,  3) (  3,  7,  3) (  3,  6,  4)
    -0.1692E-03   -0.2903E-03   -0.2280E-03   -0.1242E-03   -0.7565E-04
  (  3,  7,  1) (  3,  7,  3) (  3,  7,  3) (  3,  6,  4) (  3,  7,  3)


 OUTPUT CONTROL FOR STRESS PERIOD   29   TIME STEP   5
    SAVE HEAD FOR ALL LAYERS

 HEAD WILL BE SAVED ON UNIT   21 AT END OF TIME STEP   5, STRESS PERIOD   29
 
 SOLVING FOR HEAD 
    25 ITERATIONS FOR TIME STEP   6 IN STRESS PERIOD   29

 MAXIMUM HEAD CHANGE FOR EACH ITERATION:

    HEAD CHANGE   HEAD CHANGE   HEAD CHANGE   HEAD CHANGE   HEAD CHANGE
  LAYER,ROW,COL LAYER,ROW,COL LAYER,ROW,COL LAYER,ROW,COL LAYER,ROW,COL
 ----------------------------------------------------------------------
    -0.8330        0.7787        0.4000       -0.9411       -0.9504    
  (  2,  3,  6) (  2,  3,  6) (  3,  3,  1) (  3, 10,  4) (  3,  1,  1)
     0.4416        0.2631        0.7410E-01    0.2554E-01   -0.2528E-01
  (  3,  1, 10) (  3,  2,  2) (  2,  1,  9) (  2, 10,  1) (  2, 10, 10)
     0.2467E-01   -0.9956E-02   -0.8022E-02   -0.4091E-02   -0.2450E-02
  (  2,  7,  1) (  3,  2,  6) (  3,  2,  4) (  3,  2,  6) (  3,  2,  7)
    -0.2098E-02   -0.1640E-02   -0.1394E-02   -0.6745E-03   -0.4314E-03
  (  2,  7,  1) (  3,  2,  6) (  3,  2,  6) (  3,  2,  6) (  3,  2,  6)
    -0.3110E-03   -0.2867E-03   -0.2293E-03   -0.1206E-03   -0.6843E-04
  (  2,  8,  1) (  3,  2,  7) (  3,  2,  5) (  3,  2,  6) (  3,  2,  7)


 OUTPUT CONTROL FOR STRESS PERIOD   29   TIME STEP   6
    PRINT BUDGET
    PRINT HEAD FOR ALL LAYERS
    SAVE HEAD FOR ALL LAYERS
    SAVE DRAWDOWN FOR ALL LAYERS
1
              HEAD IN LAYER   1 AT END OF TIME STEP   6 IN STRESS PERIOD   29
  ---------------------------------------------------------------------------

           1       2       3       4       5       6       7       8       9      10
 ...................................................................................
   1    19.82   19.46   18.79   18.37   18.16   18.16   18.36   18.79   19.46   19.81
   2    18.81   18.30   17.87   17.57   17.41   17.41   17.56   17.86   18.29   18.80
   3    17.38   16.88   16.51   16.26   16.13   16.13   16.25   16.50   16.87   17.37
   4    15.44   15.00   14.70   14.51   14.41   14.41   14.50   14.69   14.99   15.43
   5    12.68   12.60   12.49   12.41   12.36   12.36   12.41   12.49   12.59   12.68
   6    10.29   10.26   10.23   10.19   10.17   10.17   10.19   10.22   10.26   10.28
   7     8.01    7.99    7.96    7.92    7.90    7.90    7.92    7.95    7.98    8.00
   8     5.82    5.77    5.69    5.61    5.56    5.56    5.61    5.69    5.77    5.81
   9     3.82    3.68    3.43    3.15    3.03    3.03    3.15    3.43    3.68    3.82
  10     2.40    2.05    1.29    0.00    0.00    0.00    0.00    1.29    2.05    2.39
1
              HEAD IN LAYER   2 AT END OF TIME STEP   6 IN STRESS PERIOD   29
  ---------------------------------------------------------------------------

           1       2       3       4       5       6       7       8       9      10
 ...................................................................................
   1    -5.23   -5.23   -5.23   -5.24   -5.26   -5.27   -5.29   -5.31   -5.33   -5.36
   2    -5.30   -4.48   -4.80   -5.29   -5.78   -6.14   -6.11   -5.79   -5.43   -5.50
   3    -5.40   -4.98   -5.49   -6.29   -7.05   -7.84   -7.58   -7.03   -6.34   -5.64
   4    -5.53   -5.24   -5.65   -6.25   -6.96   -7.19   -7.13   -6.96   -6.36   -5.78
   5    -5.68   -5.42   -5.59   -5.87   -6.15   -6.37   -6.40   -6.28   -6.10   -5.91
   6    -5.84   -5.56   -5.61   -5.73   -5.85   -5.93   -5.97   -5.96   -5.94   -6.04
   7    -6.01   -5.80   -5.82   -5.88   -5.94   -5.98   -6.00   -6.00   -6.02   -6.18
   8    -6.19   -6.20   -6.25   -6.32   -6.36   -6.39   -6.38   -6.36   -6.32   -6.31
   9    -6.37   -6.72   -6.89   -7.00   -7.01   -7.01   -7.00   -6.95   -6.80   -6.45
  10    -6.54   -6.58   -6.61   -6.64   -6.65   -6.66   -6.65   -6.63   -6.61   -6.58
1
              HEAD IN LAYER   3 AT END OF TIME STEP   6 IN STRESS PERIOD   29
  ---------------------------------------------------------------------------

           1       2       3       4       5       6       7       8       9      10
 ...................................................................................
   1   -26.65  -26.82  -27.13  -27.55  -27.99  -28.35  -28.52  -28.51  -28.44  -28.38
   2   -26.65  -26.91  -27.43  -28.16  -29.04  -29.82  -29.90  -29.50  -29.09  -28.86
   3   -26.30  -26.69  -27.52  -28.93  -31.16  -34.78  -33.93  -31.23  -29.76  -29.11
   4   -25.06  -25.38  -26.03  -27.05  -28.49  -30.36  -30.10  -28.75  -27.88  -27.45
   5   -23.19  -23.37  -23.71  -24.18  -24.72  -25.18  -25.27  -25.09  -24.87  -24.74
   6   -21.24  -21.32  -21.48  -21.68  -21.90  -22.08  -22.17  -22.18  -22.15  -22.13
   7   -19.52  -19.56  -19.63  -19.72  -19.82  -19.90  -19.96  -20.00  -20.01  -20.02
   8   -18.18  -18.20  -18.24  -18.28  -18.33  -18.38  -18.41  -18.44  -18.45  -18.46
   9   -17.28  -17.29  -17.31  -17.34  -17.36  -17.39  -17.41  -17.43  -17.44  -17.45
  10   -16.83  -16.84  -16.85  -16.87  -16.89  -16.90  -16.92  -16.94  -16.94  -16.95

 HEAD WILL BE SAVED ON UNIT   21 AT END OF TIME STEP   6, STRESS PERIOD   29

 DRAWDOWN WILL BE SAVED ON UNIT   22 AT END OF TIME STEP   6, STRESS PERIOD   29
1
  VOLUMETRIC BUDGET FOR ENTIRE MODEL AT END OF TIME STEP  6 IN STRESS PERIOD  29
  ------------------------------------------------------------------------------

     CUMULATIVE VOLUMES      L**3       RATES FOR THIS TIME STEP      L**3/T
     ------------------                 ------------------------

           IN:                                      IN:
           ---                                      ---
             STORAGE =    42793248.0000               STORAGE =        3075.0396
       CONSTANT HEAD =      752105.3750         CONSTANT HEAD =         159.5619
               WELLS =   306881856.0000                 WELLS =       30000.0000
    INST. IB STORAGE =    61721976.0000      INST. IB STORAGE =        4948.4517
    DELAY IB STORAGE =   158917536.0000      DELAY IB STORAGE =       14773.4775

            TOTAL IN =   571066752.0000              TOTAL IN =       52956.5312

          OUT:                                     OUT:
          ----                                     ----
             STORAGE =           0.0000               STORAGE =           0.0000
       CONSTANT HEAD =   264215040.0000         CONSTANT HEAD =       22956.5605
               WELLS =   306851872.0000                 WELLS =       30000.0000
    INST. IB STORAGE =           0.0000      INST. IB STORAGE =           0.0000
    DELAY IB STORAGE =          39.8223      DELAY IB STORAGE =           0.0000

           TOTAL OUT =   571066944.0000             TOTAL OUT =       52956.5625

            IN - OUT =        -192.0000              IN - OUT =      -3.1250E-02

 PERCENT DISCREPANCY =           0.00     PERCENT DISCREPANCY =           0.00






          TIME SUMMARY AT END OF TIME STEP   6 IN STRESS PERIOD   29
                    SECONDS     MINUTES      HOURS       DAYS        YEARS
                    -----------------------------------------------------------
   TIME STEP LENGTH 9.18681E+06 1.53113E+05  2551.9      106.33     0.29111    
 STRESS PERIOD TIME 3.15619E+07 5.26032E+05  8767.2      365.30      1.0001    
         TOTAL TIME 8.83820E+08 1.47303E+07 2.45506E+05  10229.      28.007    
1

                               VOLUMETRIC BUDGET FOR SYSTEMS OF DELAY INTERBEDS
                                          AT END OF TIME STEP  6 IN STRESS PERIOD 29

          |   C U M U L A T I V E   V O L U M E S   L**3           | R A T E S   F O R  T H I S  T I M E  S T E P   L**3/T  |
   SYSTEM |    CHANGE IN     BOUNDARY                    PERCENT   |    CHANGE IN     BOUNDARY                    PERCENT   |
   NUMBER |     STORAGE        FLOW           SUM      DISCREPANCY |     STORAGE        FLOW           SUM      DISCREPANCY |
  --------|--------------------------------------------------------|--------------------------------------------------------|
      1    0.10932E+06   -0.10932E+06   -0.15625E-01   -0.14293E-04     7.3764        -7.3764       -0.47684E-06   -0.64644E-05
      2    0.15881E+09   -0.15881E+09    -16.000       -0.10075E-04     14766.        -14766.       -0.29297E-02   -0.19841E-04
  --------|--------------------------------------------------------|--------------------------------------------------------|
 TOTALS:    0.15892E+09   -0.15892E+09    -16.000       -0.10068E-04     14773.        -14773.       -0.29297E-02   -0.19831E-04
1
                            STRESS PERIOD NO.   30, LENGTH =   365.3000    
                            -----------------------------------------------

                              NUMBER OF TIME STEPS =     6

                               MULTIPLIER FOR DELT =     1.300

                            INITIAL TIME STEP SIZE =   28.63744    

 REUSING NON-PARAMETER WELLS FROM LAST STRESS PERIOD

     14 WELLS
 
 SOLVING FOR HEAD 

    41 ITERATIONS FOR TIME STEP   1 IN STRESS PERIOD   30

 OUTPUT CONTROL FOR STRESS PERIOD   30   TIME STEP   1
    SAVE HEAD FOR ALL LAYERS

 HEAD WILL BE SAVED ON UNIT   21 AT END OF TIME STEP   1, STRESS PERIOD   30
 
 SOLVING FOR HEAD 
    35 ITERATIONS FOR TIME STEP   2 IN STRESS PERIOD   30

 OUTPUT CONTROL FOR STRESS PERIOD   30   TIME STEP   2
    SAVE HEAD FOR ALL LAYERS

 HEAD WILL BE SAVED ON UNIT   21 AT END OF TIME STEP   2, STRESS PERIOD   30
 
 SOLVING FOR HEAD 
    35 ITERATIONS FOR TIME STEP   3 IN STRESS PERIOD   30

 OUTPUT CONTROL FOR STRESS PERIOD   30   TIME STEP   3
    SAVE HEAD FOR ALL LAYERS

 HEAD WILL BE SAVED ON UNIT   21 AT END OF TIME STEP   3, STRESS PERIOD   30
 
 SOLVING FOR HEAD 
    28 ITERATIONS FOR TIME STEP   4 IN STRESS PERIOD   30

 OUTPUT CONTROL FOR STRESS PERIOD   30   TIME STEP   4
    SAVE HEAD FOR ALL LAYERS

 HEAD WILL BE SAVED ON UNIT   21 AT END OF TIME STEP   4, STRESS PERIOD   30
 
 SOLVING FOR HEAD 
    25 ITERATIONS FOR TIME STEP   5 IN STRESS PERIOD   30

 MAXIMUM HEAD CHANGE FOR EACH ITERATION:

    HEAD CHANGE   HEAD CHANGE   HEAD CHANGE   HEAD CHANGE   HEAD CHANGE
  LAYER,ROW,COL LAYER,ROW,COL LAYER,ROW,COL LAYER,ROW,COL LAYER,ROW,COL
 ----------------------------------------------------------------------
    -0.7814        0.9934        0.9126       -0.8626        -2.274    
  (  2,  3,  6) (  3,  1, 10) (  3,  2,  1) (  3, 10,  4) (  3,  1,  1)
     0.6545        0.3790        0.1243        0.1325       -0.6272E-01
  (  3,  1, 10) (  3,  9,  3) (  2,  1,  9) (  2, 10,  3) (  2, 10, 10)
     0.9545E-01    0.1606E-01   -0.6148E-02   -0.3302E-02   -0.2354E-02
  (  2,  7,  1) (  2,  1,  2) (  3,  7,  3) (  3,  7,  1) (  2, 10,  3)
    -0.1938E-02   -0.1479E-02   -0.1148E-02   -0.6253E-03   -0.4042E-03
  (  2,  6,  1) (  3,  7,  2) (  3,  7,  2) (  3,  7,  2) (  3,  7,  2)
    -0.1633E-03   -0.2776E-03   -0.2173E-03   -0.1164E-03   -0.6803E-04
  (  3,  7,  1) (  3,  7,  2) (  3,  7,  3) (  3,  7,  2) (  3,  7,  2)


 OUTPUT CONTROL FOR STRESS PERIOD   30   TIME STEP   5
    SAVE HEAD FOR ALL LAYERS

 HEAD WILL BE SAVED ON UNIT   21 AT END OF TIME STEP   5, STRESS PERIOD   30
 
 SOLVING FOR HEAD 
    25 ITERATIONS FOR TIME STEP   6 IN STRESS PERIOD   30

 MAXIMUM HEAD CHANGE FOR EACH ITERATION:

    HEAD CHANGE   HEAD CHANGE   HEAD CHANGE   HEAD CHANGE   HEAD CHANGE
  LAYER,ROW,COL LAYER,ROW,COL LAYER,ROW,COL LAYER,ROW,COL LAYER,ROW,COL
 ----------------------------------------------------------------------
    -0.8505        0.7747        0.4137       -0.9142       -0.9999    
  (  2,  3,  6) (  2,  3,  6) (  3,  2,  1) (  3, 10, 10) (  3,  1,  1)
     0.4792        0.2949        0.8495E-01    0.3388E-01   -0.2998E-01
  (  3,  1, 10) (  3,  2,  2) (  2,  1,  9) (  2, 10,  1) (  2, 10, 10)
     0.2791E-01   -0.1097E-01   -0.8966E-02   -0.4519E-02   -0.2678E-02
  (  2,  7,  1) (  3,  2,  6) (  3,  3,  4) (  3,  2,  6) (  3,  2,  6)
    -0.2180E-02   -0.1802E-02   -0.1545E-02   -0.7415E-03   -0.4711E-03
  (  2,  7,  1) (  3,  2,  3) (  3,  3,  4) (  3,  3,  5) (  3,  3,  5)
    -0.3297E-03   -0.3126E-03   -0.2548E-03   -0.1327E-03   -0.7579E-04
  (  2,  9,  1) (  3,  2,  6) (  3,  3,  4) (  3,  3,  5) (  3,  2,  6)


 OUTPUT CONTROL FOR STRESS PERIOD   30   TIME STEP   6
    PRINT BUDGET
    PRINT HEAD FOR ALL LAYERS
    SAVE HEAD FOR ALL LAYERS
    SAVE DRAWDOWN FOR ALL LAYERS
1
              HEAD IN LAYER   1 AT END OF TIME STEP   6 IN STRESS PERIOD   30
  ---------------------------------------------------------------------------

           1       2       3       4       5       6       7       8       9      10
 ...................................................................................
   1    19.74   19.39   18.71   18.29   18.08   18.08   18.28   18.71   19.38   19.73
   2    18.73   18.22   17.79   17.49   17.34   17.34   17.49   17.79   18.22   18.72
   3    17.30   16.81   16.43   16.18   16.06   16.05   16.18   16.42   16.80   17.29
   4    15.37   14.93   14.63   14.44   14.34   14.34   14.43   14.62   14.92   15.36
   5    12.62   12.53   12.43   12.35   12.30   12.30   12.34   12.42   12.52   12.61
   6    10.23   10.21   10.17   10.13   10.11   10.11   10.13   10.16   10.20   10.23
   7     7.96    7.94    7.91    7.87    7.85    7.85    7.87    7.90    7.94    7.96
   8     5.78    5.73    5.65    5.57    5.53    5.53    5.57    5.65    5.73    5.77
   9     3.79    3.65    3.41    3.13    3.01    3.01    3.13    3.40    3.65    3.79
  10     2.38    2.03    1.28    0.00    0.00    0.00    0.00    1.28    2.03    2.38
1
              HEAD IN LAYER   2 AT END OF TIME STEP   6 IN STRESS PERIOD   30
  ---------------------------------------------------------------------------

           1       2       3       4       5       6       7       8       9      10
 ...................................................................................
   1    -5.51   -5.51   -5.51   -5.52   -5.54   -5.56   -5.57   -5.59   -5.61   -5.64
   2    -5.58   -4.77   -5.09   -5.58   -6.07   -6.43   -6.40   -6.08   -5.72   -5.77
   3    -5.68   -5.27   -5.78   -6.56   -7.14   -8.05   -7.76   -7.09   -6.62   -5.92
   4    -5.81   -5.52   -5.93   -6.52   -7.02   -7.31   -7.24   -7.02   -6.63   -6.05
   5    -5.95   -5.69   -5.87   -6.14   -6.43   -6.65   -6.67   -6.55   -6.38   -6.18
   6    -6.11   -5.82   -5.88   -6.00   -6.11   -6.20   -6.24   -6.23   -6.21   -6.31
   7    -6.27   -6.06   -6.08   -6.14   -6.20   -6.24   -6.26   -6.26   -6.28   -6.44
   8    -6.45   -6.45   -6.50   -6.56   -6.61   -6.63   -6.63   -6.60   -6.57   -6.57
   9    -6.62   -6.96   -7.01   -7.03   -7.05   -7.05   -7.04   -7.02   -7.00   -6.71
  10    -6.79   -6.83   -6.86   -6.89   -6.90   -6.91   -6.90   -6.88   -6.86   -6.83
1
              HEAD IN LAYER   3 AT END OF TIME STEP   6 IN STRESS PERIOD   30
  ---------------------------------------------------------------------------

           1       2       3       4       5       6       7       8       9      10
 ...................................................................................
   1   -27.16  -27.33  -27.65  -28.07  -28.51  -28.87  -29.03  -29.03  -28.96  -28.90
   2   -27.17  -27.43  -27.94  -28.68  -29.55  -30.33  -30.41  -30.01  -29.61  -29.37
   3   -26.81  -27.20  -28.03  -29.44  -31.67  -35.29  -34.44  -31.74  -30.27  -29.62
   4   -25.56  -25.88  -26.53  -27.55  -28.98  -30.86  -30.59  -29.25  -28.38  -27.95
   5   -23.68  -23.86  -24.20  -24.67  -25.21  -25.67  -25.76  -25.58  -25.36  -25.23
   6   -21.72  -21.80  -21.96  -22.16  -22.38  -22.56  -22.65  -22.66  -22.63  -22.61
   7   -19.99  -20.03  -20.10  -20.19  -20.29  -20.37  -20.43  -20.47  -20.48  -20.49
   8   -18.64  -18.66  -18.70  -18.74  -18.79  -18.84  -18.87  -18.90  -18.92  -18.92
   9   -17.74  -17.75  -17.77  -17.79  -17.82  -17.85  -17.87  -17.89  -17.90  -17.90
  10   -17.28  -17.29  -17.30  -17.32  -17.34  -17.36  -17.37  -17.39  -17.40  -17.40

 HEAD WILL BE SAVED ON UNIT   21 AT END OF TIME STEP   6, STRESS PERIOD   30

 DRAWDOWN WILL BE SAVED ON UNIT   22 AT END OF TIME STEP   6, STRESS PERIOD   30
1
  VOLUMETRIC BUDGET FOR ENTIRE MODEL AT END OF TIME STEP  6 IN STRESS PERIOD  30
  ------------------------------------------------------------------------------

     CUMULATIVE VOLUMES      L**3       RATES FOR THIS TIME STEP      L**3/T
     ------------------                 ------------------------

           IN:                                      IN:
           ---                                      ---
             STORAGE =    43902856.0000               STORAGE =        3013.5369
       CONSTANT HEAD =      811708.1250         CONSTANT HEAD =         165.5604
               WELLS =   317840832.0000                 WELLS =       30000.0000
    INST. IB STORAGE =    63528680.0000      INST. IB STORAGE =        4939.0034
    DELAY IB STORAGE =   164290816.0000      DELAY IB STORAGE =       14670.8135

            TOTAL IN =   590374912.0000              TOTAL IN =       52788.9141

          OUT:                                     OUT:
          ----                                     ----
             STORAGE =           0.0000               STORAGE =           0.0000
       CONSTANT HEAD =   272564256.0000         CONSTANT HEAD =       22788.9492
               WELLS =   317810848.0000                 WELLS =       30000.0000
    INST. IB STORAGE =           0.0000      INST. IB STORAGE =           0.0000
    DELAY IB STORAGE =          39.8223      DELAY IB STORAGE =           0.0000

           TOTAL OUT =   590375168.0000             TOTAL OUT =       52788.9492

            IN - OUT =        -256.0000              IN - OUT =      -3.5156E-02

 PERCENT DISCREPANCY =           0.00     PERCENT DISCREPANCY =           0.00






          TIME SUMMARY AT END OF TIME STEP   6 IN STRESS PERIOD   30
                    SECONDS     MINUTES      HOURS       DAYS        YEARS
                    -----------------------------------------------------------
   TIME STEP LENGTH 9.18681E+06 1.53113E+05  2551.9      106.33     0.29111    
 STRESS PERIOD TIME 3.15619E+07 5.26032E+05  8767.2      365.30      1.0001    
         TOTAL TIME 9.15382E+08 1.52564E+07 2.54273E+05  10595.      29.007    
1

                               VOLUMETRIC BUDGET FOR SYSTEMS OF DELAY INTERBEDS
                                          AT END OF TIME STEP  6 IN STRESS PERIOD 30

          |   C U M U L A T I V E   V O L U M E S   L**3           | R A T E S   F O R  T H I S  T I M E  S T E P   L**3/T  |
   SYSTEM |    CHANGE IN     BOUNDARY                    PERCENT   |    CHANGE IN     BOUNDARY                    PERCENT   |
   NUMBER |     STORAGE        FLOW           SUM      DISCREPANCY |     STORAGE        FLOW           SUM      DISCREPANCY |
  --------|--------------------------------------------------------|--------------------------------------------------------|
      1    0.11227E+06   -0.11227E+06   -0.15625E-01   -0.13917E-04     7.4018        -7.4018       -0.47684E-06   -0.64421E-05
      2    0.16418E+09   -0.16418E+09    -16.000       -0.97455E-05     14663.        -14663.        0.19531E-02    0.13320E-04
  --------|--------------------------------------------------------|--------------------------------------------------------|
 TOTALS:    0.16429E+09   -0.16429E+09    -16.000       -0.97388E-05     14671.        -14671.        0.19531E-02    0.13313E-04
1
                            STRESS PERIOD NO.   31, LENGTH =   365.3000    
                            -----------------------------------------------

                              NUMBER OF TIME STEPS =     6

                               MULTIPLIER FOR DELT =     1.300

                            INITIAL TIME STEP SIZE =   28.63744    

 REUSING NON-PARAMETER WELLS FROM LAST STRESS PERIOD

     14 WELLS
 
 SOLVING FOR HEAD 

    38 ITERATIONS FOR TIME STEP   1 IN STRESS PERIOD   31

 OUTPUT CONTROL FOR STRESS PERIOD   31   TIME STEP   1
    SAVE HEAD FOR ALL LAYERS

 HEAD WILL BE SAVED ON UNIT   21 AT END OF TIME STEP   1, STRESS PERIOD   31
 
 SOLVING FOR HEAD 
    36 ITERATIONS FOR TIME STEP   2 IN STRESS PERIOD   31

 OUTPUT CONTROL FOR STRESS PERIOD   31   TIME STEP   2
    SAVE HEAD FOR ALL LAYERS

 HEAD WILL BE SAVED ON UNIT   21 AT END OF TIME STEP   2, STRESS PERIOD   31
 
 SOLVING FOR HEAD 
    34 ITERATIONS FOR TIME STEP   3 IN STRESS PERIOD   31

 OUTPUT CONTROL FOR STRESS PERIOD   31   TIME STEP   3
    SAVE HEAD FOR ALL LAYERS

 HEAD WILL BE SAVED ON UNIT   21 AT END OF TIME STEP   3, STRESS PERIOD   31
 
 SOLVING FOR HEAD 
    28 ITERATIONS FOR TIME STEP   4 IN STRESS PERIOD   31

 OUTPUT CONTROL FOR STRESS PERIOD   31   TIME STEP   4
    SAVE HEAD FOR ALL LAYERS

 HEAD WILL BE SAVED ON UNIT   21 AT END OF TIME STEP   4, STRESS PERIOD   31
 
 SOLVING FOR HEAD 
    25 ITERATIONS FOR TIME STEP   5 IN STRESS PERIOD   31

 MAXIMUM HEAD CHANGE FOR EACH ITERATION:

    HEAD CHANGE   HEAD CHANGE   HEAD CHANGE   HEAD CHANGE   HEAD CHANGE
  LAYER,ROW,COL LAYER,ROW,COL LAYER,ROW,COL LAYER,ROW,COL LAYER,ROW,COL
 ----------------------------------------------------------------------
    -0.7439        0.8146        0.9090       -0.8230        -2.269    
  (  2,  3,  7) (  3,  1,  8) (  3,  3,  3) (  3, 10, 10) (  3,  1,  1)
     0.6619        0.3766        0.1931        0.4558E-01    0.2335E-01
  (  3,  1, 10) (  3,  9,  3) (  2,  8,  5) (  2,  8,  8) (  2,  1,  1)
     0.6557E-01    0.8021E-02   -0.6141E-02   -0.3282E-02   -0.2141E-02
  (  2,  6,  1) (  2,  1,  2) (  3,  7,  3) (  3,  7,  1) (  3,  7,  3)
    -0.8602E-03   -0.1455E-02   -0.1140E-02   -0.6153E-03   -0.3971E-03
  (  3,  8,  1) (  3,  7,  3) (  3,  7,  3) (  3,  7,  3) (  3,  7,  2)
    -0.1624E-03   -0.2727E-03   -0.2153E-03   -0.1143E-03   -0.6550E-04
  (  3,  8,  1) (  3,  7,  2) (  3,  7,  3) (  3,  7,  2) (  3,  7,  3)


 OUTPUT CONTROL FOR STRESS PERIOD   31   TIME STEP   5
    SAVE HEAD FOR ALL LAYERS

 HEAD WILL BE SAVED ON UNIT   21 AT END OF TIME STEP   5, STRESS PERIOD   31
 
 SOLVING FOR HEAD 
    25 ITERATIONS FOR TIME STEP   6 IN STRESS PERIOD   31

 MAXIMUM HEAD CHANGE FOR EACH ITERATION:

    HEAD CHANGE   HEAD CHANGE   HEAD CHANGE   HEAD CHANGE   HEAD CHANGE
  LAYER,ROW,COL LAYER,ROW,COL LAYER,ROW,COL LAYER,ROW,COL LAYER,ROW,COL
 ----------------------------------------------------------------------
    -0.6363        0.5958        0.3932       -0.9126       -0.8993    
  (  2,  4,  6) (  2,  4,  6) (  3,  2,  1) (  3, 10,  2) (  3,  1,  1)
     0.4310        0.2537        0.1001       -0.1995E-01   -0.1482E-01
  (  3,  1, 10) (  3,  2,  2) (  2,  3,  9) (  3,  2,  1) (  3,  1,  6)
     0.2314E-01   -0.9794E-02   -0.7859E-02   -0.4012E-02   -0.2407E-02
  (  2,  7,  1) (  3,  2,  7) (  3,  2,  4) (  3,  2,  7) (  3,  2,  7)
    -0.1025E-02   -0.1605E-02   -0.1366E-02   -0.6622E-03   -0.4229E-03
  (  3,  1, 10) (  3,  2,  6) (  3,  2,  6) (  3,  2,  6) (  3,  2,  6)
    -0.1822E-03   -0.2819E-03   -0.2250E-03   -0.1186E-03   -0.6567E-04
  (  2,  9,  1) (  3,  2,  7) (  3,  2,  6) (  3,  2,  7) (  3,  2,  7)


 OUTPUT CONTROL FOR STRESS PERIOD   31   TIME STEP   6
    PRINT BUDGET
    PRINT HEAD FOR ALL LAYERS
    SAVE HEAD FOR ALL LAYERS
    SAVE DRAWDOWN FOR ALL LAYERS
1
              HEAD IN LAYER   1 AT END OF TIME STEP   6 IN STRESS PERIOD   31
  ---------------------------------------------------------------------------

           1       2       3       4       5       6       7       8       9      10
 ...................................................................................
   1    19.66   19.31   18.64   18.21   18.00   18.00   18.21   18.63   19.30   19.66
   2    18.66   18.15   17.72   17.42   17.26   17.26   17.41   17.71   18.14   18.65
   3    17.23   16.73   16.36   16.11   15.98   15.98   16.10   16.35   16.72   17.22
   4    15.30   14.86   14.56   14.37   14.27   14.27   14.36   14.55   14.85   15.29
   5    12.56   12.47   12.36   12.28   12.24   12.23   12.28   12.36   12.46   12.55
   6    10.18   10.15   10.11   10.07   10.05   10.05   10.07   10.11   10.14   10.17
   7     7.91    7.89    7.86    7.83    7.81    7.81    7.82    7.86    7.89    7.91
   8     5.74    5.69    5.62    5.54    5.49    5.49    5.53    5.61    5.69    5.74
   9     3.77    3.63    3.38    3.11    2.99    2.99    3.10    3.38    3.63    3.76
  10     2.36    2.02    1.27    0.00    0.00    0.00    0.00    1.27    2.01    2.36
1
              HEAD IN LAYER   2 AT END OF TIME STEP   6 IN STRESS PERIOD   31
  ---------------------------------------------------------------------------

           1       2       3       4       5       6       7       8       9      10
 ...................................................................................
   1    -5.77   -5.77   -5.77   -5.78   -5.80   -5.81   -5.83   -5.85   -5.87   -5.90
   2    -5.83   -5.06   -5.38   -5.87   -6.36   -6.72   -6.69   -6.37   -6.01   -6.02
   3    -5.93   -5.56   -6.07   -6.84   -7.25   -8.26   -7.96   -7.19   -6.89   -6.16
   4    -6.04   -5.80   -6.21   -6.78   -7.08   -7.46   -7.38   -7.08   -6.89   -6.29
   5    -6.18   -5.96   -6.14   -6.42   -6.70   -6.92   -6.94   -6.82   -6.64   -6.41
   6    -6.33   -6.09   -6.15   -6.26   -6.38   -6.47   -6.51   -6.49   -6.47   -6.53
   7    -6.48   -6.31   -6.34   -6.40   -6.46   -6.50   -6.52   -6.52   -6.53   -6.64
   8    -6.64   -6.69   -6.75   -6.81   -6.85   -6.87   -6.87   -6.85   -6.81   -6.77
   9    -6.81   -7.02   -7.05   -7.09   -7.11   -7.12   -7.10   -7.06   -7.03   -6.89
  10    -6.96   -6.99   -7.02   -7.04   -7.05   -7.06   -7.05   -7.04   -7.02   -7.00
1
              HEAD IN LAYER   3 AT END OF TIME STEP   6 IN STRESS PERIOD   31
  ---------------------------------------------------------------------------

           1       2       3       4       5       6       7       8       9      10
 ...................................................................................
   1   -27.67  -27.84  -28.16  -28.58  -29.02  -29.38  -29.54  -29.54  -29.47  -29.41
   2   -27.67  -27.93  -28.45  -29.18  -30.06  -30.84  -30.92  -30.52  -30.11  -29.88
   3   -27.31  -27.70  -28.53  -29.94  -32.17  -35.79  -34.94  -32.24  -30.77  -30.12
   4   -26.05  -26.37  -27.02  -28.04  -29.48  -31.35  -31.09  -29.75  -28.87  -28.44
   5   -24.17  -24.35  -24.69  -25.16  -25.70  -26.15  -26.24  -26.06  -25.85  -25.71
   6   -22.19  -22.28  -22.43  -22.64  -22.86  -23.03  -23.12  -23.14  -23.11  -23.09
   7   -20.46  -20.49  -20.57  -20.66  -20.76  -20.84  -20.90  -20.94  -20.95  -20.95
   8   -19.10  -19.12  -19.16  -19.20  -19.25  -19.30  -19.33  -19.36  -19.38  -19.38
   9   -18.19  -18.20  -18.22  -18.25  -18.27  -18.30  -18.32  -18.34  -18.35  -18.36
  10   -17.73  -17.74  -17.75  -17.77  -17.79  -17.81  -17.82  -17.84  -17.85  -17.85

 HEAD WILL BE SAVED ON UNIT   21 AT END OF TIME STEP   6, STRESS PERIOD   31

 DRAWDOWN WILL BE SAVED ON UNIT   22 AT END OF TIME STEP   6, STRESS PERIOD   31
1
  VOLUMETRIC BUDGET FOR ENTIRE MODEL AT END OF TIME STEP  6 IN STRESS PERIOD  31
  ------------------------------------------------------------------------------

     CUMULATIVE VOLUMES      L**3       RATES FOR THIS TIME STEP      L**3/T
     ------------------                 ------------------------

           IN:                                      IN:
           ---                                      ---
             STORAGE =    44989224.0000               STORAGE =        2946.8301
       CONSTANT HEAD =      873122.1875         CONSTANT HEAD =         169.2350
               WELLS =   328799808.0000                 WELLS =       30000.0000
    INST. IB STORAGE =    65337704.0000      INST. IB STORAGE =        4956.3901
    DELAY IB STORAGE =   169623184.0000      DELAY IB STORAGE =       14554.6377

            TOTAL IN =   609623040.0000              TOTAL IN =       52627.0938

          OUT:                                     OUT:
          ----                                     ----
             STORAGE =           0.0000               STORAGE =           0.0000
       CONSTANT HEAD =   280853440.0000         CONSTANT HEAD =       22627.1191
               WELLS =   328769824.0000                 WELLS =       30000.0000
    INST. IB STORAGE =           0.0000      INST. IB STORAGE =           0.0000
    DELAY IB STORAGE =          39.8223      DELAY IB STORAGE =           0.0000

           TOTAL OUT =   609623296.0000             TOTAL OUT =       52627.1172

            IN - OUT =        -256.0000              IN - OUT =      -2.3438E-02

 PERCENT DISCREPANCY =           0.00     PERCENT DISCREPANCY =           0.00






          TIME SUMMARY AT END OF TIME STEP   6 IN STRESS PERIOD   31
                    SECONDS     MINUTES      HOURS       DAYS        YEARS
                    -----------------------------------------------------------
   TIME STEP LENGTH 9.18681E+06 1.53113E+05  2551.9      106.33     0.29111    
 STRESS PERIOD TIME 3.15619E+07 5.26032E+05  8767.2      365.30      1.0001    
         TOTAL TIME 9.46944E+08 1.57824E+07 2.63040E+05  10960.      30.007    
1

                               VOLUMETRIC BUDGET FOR SYSTEMS OF DELAY INTERBEDS
                                          AT END OF TIME STEP  6 IN STRESS PERIOD 31

          |   C U M U L A T I V E   V O L U M E S   L**3           | R A T E S   F O R  T H I S  T I M E  S T E P   L**3/T  |
   SYSTEM |    CHANGE IN     BOUNDARY                    PERCENT   |    CHANGE IN     BOUNDARY                    PERCENT   |
   NUMBER |     STORAGE        FLOW           SUM      DISCREPANCY |     STORAGE        FLOW           SUM      DISCREPANCY |
  --------|--------------------------------------------------------|--------------------------------------------------------|
      1    0.11511E+06   -0.11511E+06   -0.15625E-01   -0.13574E-04     7.0545        -7.0545        0.14305E-05    0.20278E-04
      2    0.16951E+09   -0.16951E+09    -16.000       -0.94391E-05     14548.        -14548.       -0.97656E-03   -0.67129E-05
  --------|--------------------------------------------------------|--------------------------------------------------------|
 TOTALS:    0.16962E+09   -0.16962E+09    -16.000       -0.94327E-05     14555.        -14555.       -0.97656E-03   -0.67096E-05
